/*---------------------------------------------------------------------------*\
| =========                 |                                                 |
| \\      /  F ield         | OpenFOAM: The Open Source CFD Toolbox           |
|  \\    /   O peration     | Version:  2506                                  |
|   \\  /    A nd           | Website:  www.openfoam.com                      |
|    \\/     M anipulation  |                                                 |
\*---------------------------------------------------------------------------*/
Build  : _d6aa836d-20260127 OPENFOAM=2506 patch=260127 version=2506
Arch   : "LSB;label=32;scalar=64"
Exec   : buoyantPimpleFoam
Date   : Mar 25 2026
Time   : 19:15:39
Host   : Yzk-laptop
PID    : 40752
I/O    : uncollated
Case   : /home/yzk/OpenFOAM/spot_melting_marangoni
nProcs : 1
trapFpe: Floating point exception trapping enabled (FOAM_SIGFPE).
fileModificationChecking : Monitoring run-time modified files using timeStampMaster (fileModificationSkew 5, maxFileModificationPolls 20)
allowSystemOperations : Allowing user-supplied system call operations

// * * * * * * * * * * * * * * * * * * * * * * * * * * * * * * * * * * * * * //
Create time

Create mesh for time = 0.0000000000e+00


PIMPLE: no residual control data found. Calculations will employ 2 corrector loops

Reading thermophysical properties

Selecting thermodynamics package 
{
    type            heRhoThermo;
    mixture         pureMixture;
    transport       const;
    thermo          hConst;
    equationOfState rhoConst;
    specie          specie;
    energy          sensibleEnthalpy;
}

Reading field U

Using dynamicCode for patch top on field U at line 31 in "/home/yzk/OpenFOAM/spot_melting_marangoni/0/U/boundaryField/top"
Could not load "/home/yzk/OpenFOAM/spot_melting_marangoni/dynamicCode/platforms/linux64GccDPInt32Opt/lib/libmarangoniBC_f6cea5d472d7427b897a262d9f5c538bb5015255.so"
/home/yzk/OpenFOAM/spot_melting_marangoni/dynamicCode/platforms/linux64GccDPInt32Opt/lib/libmarangoniBC_f6cea5d472d7427b897a262d9f5c538bb5015255.so: cannot open shared object file: No such file or directory
Creating new library in "dynamicCode/marangoniBC/platforms/linux64GccDPInt32Opt/lib/libmarangoniBC_f6cea5d472d7427b897a262d9f5c538bb5015255.so"
Invoking wmake libso /home/yzk/OpenFOAM/spot_melting_marangoni/dynamicCode/marangoniBC
wmake libso /home/yzk/OpenFOAM/spot_melting_marangoni/dynamicCode/marangoniBC
    ln: ./lnInclude
    dep: fixedValueFvPatchFieldTemplate.C
    Ctoo: fixedValueFvPatchFieldTemplate.C
    link: /home/yzk/OpenFOAM/spot_melting_marangoni/dynamicCode/marangoniBC/../platforms/linux64GccDPInt32Opt/lib/libmarangoniBC_f6cea5d472d7427b897a262d9f5c538bb5015255.so
Reading/calculating face flux field phi

Creating turbulence model

Selecting turbulence model type laminar
Selecting laminar stress model Stokes

Reading g

Reading hRef
Calculating field g.h

Reading field p_rgh

Creating field dpdt

Creating field kinetic energy K

No MRF models present

Radiation model not active: radiationProperties not found
Selecting radiationModel none
Creating finite volume options from "constant/fvOptions"

Selecting finite volume options type scalarCodedSource
    Source: laserSource
    State: active
    - selecting all cells
    - selected 500000 cell(s) with volume 4e-12
Selecting finite volume options type scalarCodedSource
    Source: phaseChangeSource
    State: active
    - selecting all cells
    - selected 500000 cell(s) with volume 4e-12
Selecting finite volume options type vectorCodedSource
    Source: darcyDamping
    State: active
    - selecting all cells
    - selected 500000 cell(s) with volume 4e-12
Courant Number mean: 0 max: 0

Starting time loop

Courant Number mean: 0 max: 0
deltaT = 1.199904e-09
Time = 1.1999040077e-09

PIMPLE: iteration 1
diagonal:  Solving for rho, Initial residual = 0, Final residual = 0, No Iterations 0
Using dynamicCode for fvOption::mushyZoneDarcy at line 156 in "/home/yzk/OpenFOAM/spot_melting_marangoni/constant/fvOptions/darcyDamping"
Could not load "/home/yzk/OpenFOAM/spot_melting_marangoni/dynamicCode/platforms/linux64GccDPInt32Opt/lib/libmushyZoneDarcy_42a2905ff649dd172de70073d29cea588b255e47.so"
/home/yzk/OpenFOAM/spot_melting_marangoni/dynamicCode/platforms/linux64GccDPInt32Opt/lib/libmushyZoneDarcy_42a2905ff649dd172de70073d29cea588b255e47.so: cannot open shared object file: No such file or directory
Creating new library in "dynamicCode/mushyZoneDarcy/platforms/linux64GccDPInt32Opt/lib/libmushyZoneDarcy_42a2905ff649dd172de70073d29cea588b255e47.so"
Invoking wmake libso /home/yzk/OpenFOAM/spot_melting_marangoni/dynamicCode/mushyZoneDarcy
wmake libso /home/yzk/OpenFOAM/spot_melting_marangoni/dynamicCode/mushyZoneDarcy
    ln: ./lnInclude
    dep: codedFvOptionTemplate.C
    Ctoo: codedFvOptionTemplate.C
    link: /home/yzk/OpenFOAM/spot_melting_marangoni/dynamicCode/mushyZoneDarcy/../platforms/linux64GccDPInt32Opt/lib/libmushyZoneDarcy_42a2905ff649dd172de70073d29cea588b255e47.so
Selecting finite volume options type mushyZoneDarcy
    Source: mushyZoneDarcy
    State: active
    - selecting all cells
    - selected 500000 cell(s) with volume 4e-12
DILUPBiCGStab:  Solving for Ux, Initial residual = 0, Final residual = 0, No Iterations 0
DILUPBiCGStab:  Solving for Uy, Initial residual = 0, Final residual = 0, No Iterations 0
DILUPBiCGStab:  Solving for Uz, Initial residual = 0, Final residual = 0, No Iterations 0
Using dynamicCode for fvOption::spotLaserSource at line 24 in "/home/yzk/OpenFOAM/spot_melting_marangoni/constant/fvOptions/laserSource"
Could not load "/home/yzk/OpenFOAM/spot_melting_marangoni/dynamicCode/platforms/linux64GccDPInt32Opt/lib/libspotLaserSource_ce928d5cb3180c087de9bebe70200bb92a039ab5.so"
/home/yzk/OpenFOAM/spot_melting_marangoni/dynamicCode/platforms/linux64GccDPInt32Opt/lib/libspotLaserSource_ce928d5cb3180c087de9bebe70200bb92a039ab5.so: cannot open shared object file: No such file or directory
Creating new library in "dynamicCode/spotLaserSource/platforms/linux64GccDPInt32Opt/lib/libspotLaserSource_ce928d5cb3180c087de9bebe70200bb92a039ab5.so"
Invoking wmake libso /home/yzk/OpenFOAM/spot_melting_marangoni/dynamicCode/spotLaserSource
wmake libso /home/yzk/OpenFOAM/spot_melting_marangoni/dynamicCode/spotLaserSource
    ln: ./lnInclude
    dep: codedFvOptionTemplate.C
    Ctoo: codedFvOptionTemplate.C
    link: /home/yzk/OpenFOAM/spot_melting_marangoni/dynamicCode/spotLaserSource/../platforms/linux64GccDPInt32Opt/lib/libspotLaserSource_ce928d5cb3180c087de9bebe70200bb92a039ab5.so
Selecting finite volume options type spotLaserSource
    Source: spotLaserSource
    State: active
    - selecting all cells
    - selected 500000 cell(s) with volume 4e-12
Using dynamicCode for fvOption::mushyZonePhaseChange at line 76 in "/home/yzk/OpenFOAM/spot_melting_marangoni/constant/fvOptions/phaseChangeSource"
Could not load "/home/yzk/OpenFOAM/spot_melting_marangoni/dynamicCode/platforms/linux64GccDPInt32Opt/lib/libmushyZonePhaseChange_e841af48af259d06810ffa213b539ac525b5cfb7.so"
/home/yzk/OpenFOAM/spot_melting_marangoni/dynamicCode/platforms/linux64GccDPInt32Opt/lib/libmushyZonePhaseChange_e841af48af259d06810ffa213b539ac525b5cfb7.so: cannot open shared object file: No such file or directory
Creating new library in "dynamicCode/mushyZonePhaseChange/platforms/linux64GccDPInt32Opt/lib/libmushyZonePhaseChange_e841af48af259d06810ffa213b539ac525b5cfb7.so"
Invoking wmake libso /home/yzk/OpenFOAM/spot_melting_marangoni/dynamicCode/mushyZonePhaseChange
wmake libso /home/yzk/OpenFOAM/spot_melting_marangoni/dynamicCode/mushyZonePhaseChange
    ln: ./lnInclude
    dep: codedFvOptionTemplate.C
    Ctoo: codedFvOptionTemplate.C
    link: /home/yzk/OpenFOAM/spot_melting_marangoni/dynamicCode/mushyZonePhaseChange/../platforms/linux64GccDPInt32Opt/lib/libmushyZonePhaseChange_e841af48af259d06810ffa213b539ac525b5cfb7.so
Selecting finite volume options type mushyZonePhaseChange
    Source: mushyZonePhaseChange
    State: active
    - selecting all cells
    - selected 500000 cell(s) with volume 4e-12
DILUPBiCGStab:  Solving for h, Initial residual = 1, Final residual = 2.3922614e-06, No Iterations 1
DICPCG:  Solving for p_rgh, Initial residual = 1, Final residual = 8.8003328e-08, No Iterations 259
diagonal:  Solving for rho, Initial residual = 0, Final residual = 0, No Iterations 0
time step continuity errors : sum local = 3.3622753e-17, global = 3.0241274e-18, cumulative = 3.0241274e-18
PIMPLE: iteration 2
DILUPBiCGStab:  Solving for Ux, Initial residual = 0.00025151987, Final residual = 6.9882978e-13, No Iterations 1
DILUPBiCGStab:  Solving for Uy, Initial residual = 0.00024951165, Final residual = 7.6466659e-13, No Iterations 1
DILUPBiCGStab:  Solving for Uz, Initial residual = 0.00025147332, Final residual = 7.0079707e-13, No Iterations 1
DILUPBiCGStab:  Solving for h, Initial residual = 6.005902e-07, Final residual = 2.8059168e-12, No Iterations 1
DICPCG:  Solving for p_rgh, Initial residual = 0.99924669, Final residual = 9.5055285e-08, No Iterations 252
diagonal:  Solving for rho, Initial residual = 0, Final residual = 0, No Iterations 0
time step continuity errors : sum local = 3.362022e-17, global = 3.0238972e-18, cumulative = 6.0480246e-18
ExecutionTime = 13.09 s  ClockTime = 46 s

Courant Number mean: 6.2886305e-23 max: 1.2075253e-21
deltaT = 1.4397466e-09
Time = 2.6396505791e-09

PIMPLE: iteration 1
diagonal:  Solving for rho, Initial residual = 0, Final residual = 0, No Iterations 0
DILUPBiCGStab:  Solving for Ux, Initial residual = 0.97159139, Final residual = 3.1320137e-09, No Iterations 1
DILUPBiCGStab:  Solving for Uy, Initial residual = 0.97082734, Final residual = 3.3211248e-09, No Iterations 1
DILUPBiCGStab:  Solving for Uz, Initial residual = 0.97152884, Final residual = 3.1377866e-09, No Iterations 1
DILUPBiCGStab:  Solving for h, Initial residual = 0.23158575, Final residual = 7.968256e-07, No Iterations 1
DICPCG:  Solving for p_rgh, Initial residual = 0.46736407, Final residual = 9.8410346e-08, No Iterations 251
diagonal:  Solving for rho, Initial residual = 0, Final residual = 0, No Iterations 0
time step continuity errors : sum local = 6.3238203e-17, global = 4.1407567e-17, cumulative = 4.7455592e-17
PIMPLE: iteration 2
DILUPBiCGStab:  Solving for Ux, Initial residual = 0.017627495, Final residual = 4.6749469e-11, No Iterations 1
DILUPBiCGStab:  Solving for Uy, Initial residual = 0.014628036, Final residual = 4.0507447e-11, No Iterations 1
DILUPBiCGStab:  Solving for Uz, Initial residual = 0.01757729, Final residual = 4.6638545e-11, No Iterations 1
DILUPBiCGStab:  Solving for h, Initial residual = 4.7136056e-07, Final residual = 3.1638451e-12, No Iterations 1
DICPCG:  Solving for p_rgh, Initial residual = 0.00042465537, Final residual = 9.3483438e-08, No Iterations 89
diagonal:  Solving for rho, Initial residual = 0, Final residual = 0, No Iterations 0
time step continuity errors : sum local = 6.3238203e-17, global = 4.1407567e-17, cumulative = 8.8863158e-17
ExecutionTime = 18.85 s  ClockTime = 52 s

Courant Number mean: 3.0923094e-23 max: 5.9274687e-22
deltaT = 1.7273973e-09
Time = 4.3670478655e-09

PIMPLE: iteration 1
diagonal:  Solving for rho, Initial residual = 0, Final residual = 0, No Iterations 0
DILUPBiCGStab:  Solving for Ux, Initial residual = 0.46071418, Final residual = 1.2643987e-08, No Iterations 1
DILUPBiCGStab:  Solving for Uy, Initial residual = 0.46001869, Final residual = 1.3167783e-08, No Iterations 1
DILUPBiCGStab:  Solving for Uz, Initial residual = 0.46071438, Final residual = 1.2733403e-08, No Iterations 1
DILUPBiCGStab:  Solving for h, Initial residual = 0.1411983, Final residual = 6.9850295e-07, No Iterations 1
DICPCG:  Solving for p_rgh, Initial residual = 0.00012251334, Final residual = 9.8080369e-08, No Iterations 89
diagonal:  Solving for rho, Initial residual = 0, Final residual = 0, No Iterations 0
time step continuity errors : sum local = 6.4556625e-17, global = -5.3500853e-17, cumulative = 3.5362305e-17
PIMPLE: iteration 2
DILUPBiCGStab:  Solving for Ux, Initial residual = 3.093512e-05, Final residual = 1.091152e-12, No Iterations 1
DILUPBiCGStab:  Solving for Uy, Initial residual = 3.4657402e-05, Final residual = 1.2059474e-12, No Iterations 1
DILUPBiCGStab:  Solving for Uz, Initial residual = 3.0698612e-05, Final residual = 1.0643198e-12, No Iterations 1
DILUPBiCGStab:  Solving for h, Initial residual = 4.9166328e-07, Final residual = 4.7385762e-12, No Iterations 1
DICPCG:  Solving for p_rgh, Initial residual = 1.5894381e-06, Final residual = 8.1399651e-08, No Iterations 3
diagonal:  Solving for rho, Initial residual = 0, Final residual = 0, No Iterations 0
time step continuity errors : sum local = 6.4556625e-17, global = -5.3500853e-17, cumulative = -1.8138548e-17
ExecutionTime = 22.08 s  ClockTime = 55 s

Courant Number mean: 1.3598381e-23 max: 2.6058846e-22
deltaT = 2.0728767e-09
Time = 6.4399246091e-09

PIMPLE: iteration 1
diagonal:  Solving for rho, Initial residual = 0, Final residual = 0, No Iterations 0
DILUPBiCGStab:  Solving for Ux, Initial residual = 0.49973999, Final residual = 1.5556551e-08, No Iterations 1
DILUPBiCGStab:  Solving for Uy, Initial residual = 0.49800302, Final residual = 1.617095e-08, No Iterations 1
DILUPBiCGStab:  Solving for Uz, Initial residual = 0.49976099, Final residual = 1.5667376e-08, No Iterations 1
DILUPBiCGStab:  Solving for h, Initial residual = 0.10657623, Final residual = 7.5818011e-07, No Iterations 1
DICPCG:  Solving for p_rgh, Initial residual = 4.1540895e-06, Final residual = 9.6055199e-08, No Iterations 20
diagonal:  Solving for rho, Initial residual = 0, Final residual = 0, No Iterations 0
time step continuity errors : sum local = 7.2429395e-17, global = -5.1544634e-17, cumulative = -6.9683182e-17
PIMPLE: iteration 2
DILUPBiCGStab:  Solving for Ux, Initial residual = 3.7820332e-05, Final residual = 1.4928908e-12, No Iterations 1
DILUPBiCGStab:  Solving for Uy, Initial residual = 4.1924721e-05, Final residual = 1.6188658e-12, No Iterations 1
DILUPBiCGStab:  Solving for Uz, Initial residual = 3.7570433e-05, Final residual = 1.4589741e-12, No Iterations 1
DILUPBiCGStab:  Solving for h, Initial residual = 5.7547926e-07, Final residual = 7.9619281e-12, No Iterations 1
DICPCG:  Solving for p_rgh, Initial residual = 6.7674729e-07, Final residual = 6.7033542e-08, No Iterations 2
diagonal:  Solving for rho, Initial residual = 0, Final residual = 0, No Iterations 0
time step continuity errors : sum local = 7.2429395e-17, global = -5.1544634e-17, cumulative = -1.2122782e-16
ExecutionTime = 24.57 s  ClockTime = 58 s

Courant Number mean: 5.3084056e-24 max: 1.0169161e-22
deltaT = 2.4880718e-09
Time = 8.9279963955e-09

PIMPLE: iteration 1
diagonal:  Solving for rho, Initial residual = 0, Final residual = 0, No Iterations 0
DILUPBiCGStab:  Solving for Ux, Initial residual = 0.52114869, Final residual = 1.8138188e-08, No Iterations 1
DILUPBiCGStab:  Solving for Uy, Initial residual = 0.51568939, Final residual = 1.8721769e-08, No Iterations 1
DILUPBiCGStab:  Solving for Uz, Initial residual = 0.52123433, Final residual = 1.8269559e-08, No Iterations 1
DILUPBiCGStab:  Solving for h, Initial residual = 0.088518156, Final residual = 9.0585211e-07, No Iterations 1
DICPCG:  Solving for p_rgh, Initial residual = 1.4851094e-06, Final residual = 9.5029435e-08, No Iterations 8
diagonal:  Solving for rho, Initial residual = 0, Final residual = 0, No Iterations 0
time step continuity errors : sum local = 8.6991902e-17, global = 8.6686127e-17, cumulative = -3.4541688e-17
PIMPLE: iteration 2
DILUPBiCGStab:  Solving for Ux, Initial residual = 4.3561291e-05, Final residual = 1.922379e-12, No Iterations 1
DILUPBiCGStab:  Solving for Uy, Initial residual = 4.7575153e-05, Final residual = 2.0538552e-12, No Iterations 1
DILUPBiCGStab:  Solving for Uz, Initial residual = 4.3284775e-05, Final residual = 1.8791855e-12, No Iterations 1
DILUPBiCGStab:  Solving for h, Initial residual = 7.1685899e-07, Final residual = 1.4234238e-11, No Iterations 1
DICPCG:  Solving for p_rgh, Initial residual = 2.7780282e-07, Final residual = 6.4028571e-08, No Iterations 1
diagonal:  Solving for rho, Initial residual = 0, Final residual = 0, No Iterations 0
time step continuity errors : sum local = 8.6991902e-17, global = 8.6686127e-17, cumulative = 5.214444e-17
ExecutionTime = 26.82 s  ClockTime = 60 s

Courant Number mean: 1.8258934e-24 max: 3.4963112e-23
deltaT = 2.9850909e-09
Time = 1.1913087307e-08

PIMPLE: iteration 1
diagonal:  Solving for rho, Initial residual = 0, Final residual = 0, No Iterations 0
DILUPBiCGStab:  Solving for Ux, Initial residual = 0.48186612, Final residual = 1.8493147e-08, No Iterations 1
DILUPBiCGStab:  Solving for Uy, Initial residual = 0.46622366, Final residual = 1.8663574e-08, No Iterations 1
DILUPBiCGStab:  Solving for Uz, Initial residual = 0.48213542, Final residual = 1.8634379e-08, No Iterations 1
DILUPBiCGStab:  Solving for h, Initial residual = 0.077538568, Final residual = 1.1401312e-06, No Iterations 1
DICPCG:  Solving for p_rgh, Initial residual = 4.5412218e-07, Final residual = 8.7616463e-08, No Iterations 3
diagonal:  Solving for rho, Initial residual = 0, Final residual = 0, No Iterations 0
time step continuity errors : sum local = 5.8230226e-17, global = -4.6769211e-17, cumulative = 5.3752288e-18
PIMPLE: iteration 2
DILUPBiCGStab:  Solving for Ux, Initial residual = 3.9083348e-05, Final residual = 1.9019621e-12, No Iterations 1
DILUPBiCGStab:  Solving for Uy, Initial residual = 4.0976857e-05, Final residual = 1.9506158e-12, No Iterations 1
DILUPBiCGStab:  Solving for Uz, Initial residual = 3.8863655e-05, Final residual = 1.8605825e-12, No Iterations 1
DILUPBiCGStab:  Solving for h, Initial residual = 9.2625523e-07, Final residual = 2.6351634e-11, No Iterations 1
DICPCG:  Solving for p_rgh, Initial residual = 1.1771971e-07, Final residual = 6.6744011e-08, No Iterations 1
diagonal:  Solving for rho, Initial residual = 0, Final residual = 0, No Iterations 0
time step continuity errors : sum local = 5.8230226e-17, global = -4.6769211e-17, cumulative = -4.1393982e-17
ExecutionTime = 29.11 s  ClockTime = 62 s

Courant Number mean: 5.4929168e-25 max: 1.0519235e-23
deltaT = 3.5808233e-09
Time = 1.5493910647e-08

PIMPLE: iteration 1
diagonal:  Solving for rho, Initial residual = 0, Final residual = 0, No Iterations 0
DILUPBiCGStab:  Solving for Ux, Initial residual = 0.31461536, Final residual = 1.314845e-08, No Iterations 1
DILUPBiCGStab:  Solving for Uy, Initial residual = 0.28946213, Final residual = 1.2618016e-08, No Iterations 1
DILUPBiCGStab:  Solving for Uz, Initial residual = 0.31507971, Final residual = 1.326096e-08, No Iterations 1
DILUPBiCGStab:  Solving for h, Initial residual = 0.070264547, Final residual = 1.4837693e-06, No Iterations 1
DICPCG:  Solving for p_rgh, Initial residual = 1.3665181e-07, Final residual = 6.8372463e-08, No Iterations 1
diagonal:  Solving for rho, Initial residual = 0, Final residual = 0, No Iterations 0
time step continuity errors : sum local = 8.2595013e-17, global = 8.257383e-17, cumulative = 4.1179848e-17
PIMPLE: iteration 2
DILUPBiCGStab:  Solving for Ux, Initial residual = 2.0124302e-05, Final residual = 1.0661842e-12, No Iterations 1
DILUPBiCGStab:  Solving for Uy, Initial residual = 1.99323e-05, Final residual = 1.0329351e-12, No Iterations 1
DILUPBiCGStab:  Solving for Uz, Initial residual = 2.003254e-05, Final residual = 1.0440973e-12, No Iterations 1
DILUPBiCGStab:  Solving for h, Initial residual = 1.2270544e-06, Final residual = 4.9947331e-11, No Iterations 1
DICPCG:  Solving for p_rgh, Initial residual = 6.9697304e-08, Final residual = 6.9697304e-08, No Iterations 0
diagonal:  Solving for rho, Initial residual = 0, Final residual = 0, No Iterations 0
time step continuity errors : sum local = 8.2595013e-17, global = 8.257383e-17, cumulative = 1.2375368e-16
ExecutionTime = 31.41 s  ClockTime = 65 s

Courant Number mean: 1.4359763e-25 max: 6.1624334e-24
deltaT = 4.296988e-09
Time = 1.9790898655e-08

PIMPLE: iteration 1
diagonal:  Solving for rho, Initial residual = 0, Final residual = 0, No Iterations 0
DILUPBiCGStab:  Solving for Ux, Initial residual = 0.11242727, Final residual = 5.0597289e-09, No Iterations 1
DILUPBiCGStab:  Solving for Uy, Initial residual = 0.098435478, Final residual = 4.620501e-09, No Iterations 1
DILUPBiCGStab:  Solving for Uz, Initial residual = 0.11270063, Final residual = 5.107873e-09, No Iterations 1
DILUPBiCGStab:  Solving for h, Initial residual = 0.06519125, Final residual = 1.9778817e-06, No Iterations 1
DICPCG:  Solving for p_rgh, Initial residual = 1.034175e-07, Final residual = 6.7797307e-08, No Iterations 1
diagonal:  Solving for rho, Initial residual = 0, Final residual = 0, No Iterations 0
time step continuity errors : sum local = 5.68996e-17, global = -5.4242034e-17, cumulative = 6.9511644e-17
PIMPLE: iteration 2
DILUPBiCGStab:  Solving for Ux, Initial residual = 5.7703364e-06, Final residual = 3.293073e-13, No Iterations 1
DILUPBiCGStab:  Solving for Uy, Initial residual = 5.5500733e-06, Final residual = 3.0989673e-13, No Iterations 1
DILUPBiCGStab:  Solving for Uz, Initial residual = 5.7474523e-06, Final residual = 3.2267872e-13, No Iterations 1
DILUPBiCGStab:  Solving for h, Initial residual = 1.6564066e-06, Final residual = 9.6418482e-11, No Iterations 1
DICPCG:  Solving for p_rgh, Initial residual = 6.6851615e-08, Final residual = 6.6851615e-08, No Iterations 0
diagonal:  Solving for rho, Initial residual = 0, Final residual = 0, No Iterations 0
time step continuity errors : sum local = 5.68996e-17, global = -5.4242034e-17, cumulative = 1.526961e-17
ExecutionTime = 33.52 s  ClockTime = 67 s

Courant Number mean: 3.2887694e-26 max: 7.5273509e-24
deltaT = 5.155496e-09
Time = 2.4946394619e-08

PIMPLE: iteration 1
diagonal:  Solving for rho, Initial residual = 0, Final residual = 0, No Iterations 0
DILUPBiCGStab:  Solving for Ux, Initial residual = 0.024507315, Final residual = 1.1756665e-09, No Iterations 1
DILUPBiCGStab:  Solving for Uy, Initial residual = 0.021054698, Final residual = 1.0534531e-09, No Iterations 1
DILUPBiCGStab:  Solving for Uz, Initial residual = 0.024576431, Final residual = 1.1873068e-09, No Iterations 1
DILUPBiCGStab:  Solving for h, Initial residual = 0.061482443, Final residual = 2.678429e-06, No Iterations 1
DICPCG:  Solving for p_rgh, Initial residual = 7.1148155e-08, Final residual = 7.1148155e-08, No Iterations 0
diagonal:  Solving for rho, Initial residual = 0, Final residual = 0, No Iterations 0
time step continuity errors : sum local = 5.2117961e-17, global = 4.0652341e-17, cumulative = 5.5921951e-17
PIMPLE: iteration 2
DILUPBiCGStab:  Solving for Ux, Initial residual = 1.1777856e-06, Final residual = 7.16309e-14, No Iterations 1
DILUPBiCGStab:  Solving for Uy, Initial residual = 1.1256333e-06, Final residual = 6.6958485e-14, No Iterations 1
DILUPBiCGStab:  Solving for Uz, Initial residual = 1.1732667e-06, Final residual = 7.0199949e-14, No Iterations 1
DILUPBiCGStab:  Solving for h, Initial residual = 2.2640754e-06, Final residual = 1.8810828e-10, No Iterations 1
DICPCG:  Solving for p_rgh, Initial residual = 7.0952521e-08, Final residual = 7.0952521e-08, No Iterations 0
diagonal:  Solving for rho, Initial residual = 0, Final residual = 0, No Iterations 0
time step continuity errors : sum local = 5.2117961e-17, global = 4.0652341e-17, cumulative = 9.6574292e-17
ExecutionTime = 35.69 s  ClockTime = 69 s

Courant Number mean: 8.5221249e-27 max: 9.0621519e-24
deltaT = 6.1878776e-09
Time = 3.1134272238e-08

PIMPLE: iteration 1
diagonal:  Solving for rho, Initial residual = 0, Final residual = 0, No Iterations 0
DILUPBiCGStab:  Solving for Ux, Initial residual = 0.0040903091, Final residual = 2.0728497e-10, No Iterations 1
DILUPBiCGStab:  Solving for Uy, Initial residual = 0.0035020208, Final residual = 1.8509037e-10, No Iterations 1
DILUPBiCGStab:  Solving for Uz, Initial residual = 0.0041022193, Final residual = 2.0935584e-10, No Iterations 1
DILUPBiCGStab:  Solving for h, Initial residual = 0.058721002, Final residual = 3.6748063e-06, No Iterations 1
DICPCG:  Solving for p_rgh, Initial residual = 7.2631164e-08, Final residual = 7.2631164e-08, No Iterations 0
diagonal:  Solving for rho, Initial residual = 0, Final residual = 0, No Iterations 0
time step continuity errors : sum local = 8.7687493e-17, global = -8.7659862e-17, cumulative = 8.9144296e-18
PIMPLE: iteration 2
DILUPBiCGStab:  Solving for Ux, Initial residual = 1.9771548e-07, Final residual = 1.2702827e-14, No Iterations 1
DILUPBiCGStab:  Solving for Uy, Initial residual = 1.8889621e-07, Final residual = 1.187028e-14, No Iterations 1
DILUPBiCGStab:  Solving for Uz, Initial residual = 1.9696458e-07, Final residual = 1.2449366e-14, No Iterations 1
DILUPBiCGStab:  Solving for h, Initial residual = 3.1281137e-06, Final residual = 3.705421e-10, No Iterations 1
DICPCG:  Solving for p_rgh, Initial residual = 7.2598047e-08, Final residual = 7.2598047e-08, No Iterations 0
diagonal:  Solving for rho, Initial residual = 0, Final residual = 0, No Iterations 0
time step continuity errors : sum local = 8.7687493e-17, global = -8.7659862e-17, cumulative = -7.8745433e-17
ExecutionTime = 37.88 s  ClockTime = 71 s

Courant Number mean: 5.9419382e-27 max: 1.0883009e-23
deltaT = 7.427303e-09
Time = 3.8561575269e-08

PIMPLE: iteration 1
diagonal:  Solving for rho, Initial residual = 0, Final residual = 0, No Iterations 0
DILUPBiCGStab:  Solving for Ux, Initial residual = 0.00057061333, Final residual = 3.0304904e-11, No Iterations 1
DILUPBiCGStab:  Solving for Uy, Initial residual = 0.00048845418, Final residual = 2.7053506e-11, No Iterations 1
DILUPBiCGStab:  Solving for Uz, Initial residual = 0.00057228629, Final residual = 3.0608193e-11, No Iterations 1
DILUPBiCGStab:  Solving for h, Initial residual = 0.056606073, Final residual = 5.0874217e-06, No Iterations 1
DICPCG:  Solving for p_rgh, Initial residual = 7.3353315e-08, Final residual = 7.3353315e-08, No Iterations 0
diagonal:  Solving for rho, Initial residual = 0, Final residual = 0, No Iterations 0
time step continuity errors : sum local = 7.2064906e-17, global = -7.2057999e-17, cumulative = -1.5080343e-16
PIMPLE: iteration 2
DILUPBiCGStab:  Solving for Ux, Initial residual = 2.8148048e-08, Final residual = 2.8148048e-08, No Iterations 0
DILUPBiCGStab:  Solving for Uy, Initial residual = 2.6889317e-08, Final residual = 2.6889317e-08, No Iterations 0
DILUPBiCGStab:  Solving for Uz, Initial residual = 2.8041212e-08, Final residual = 2.8041212e-08, No Iterations 0
DILUPBiCGStab:  Solving for h, Initial residual = 4.3540144e-06, Final residual = 7.3374726e-10, No Iterations 1
DICPCG:  Solving for p_rgh, Initial residual = 7.334851e-08, Final residual = 7.334851e-08, No Iterations 0
diagonal:  Solving for rho, Initial residual = 0, Final residual = 0, No Iterations 0
time step continuity errors : sum local = 7.2064906e-17, global = -7.2057999e-17, cumulative = -2.2286143e-16
ExecutionTime = 39.96 s  ClockTime = 73 s

Courant Number mean: 6.9520855e-27 max: 1.3063915e-23
deltaT = 8.9074298e-09
Time = 4.7469005116e-08

PIMPLE: iteration 1
diagonal:  Solving for rho, Initial residual = 0, Final residual = 0, No Iterations 0
DILUPBiCGStab:  Solving for Ux, Initial residual = 6.7697653e-05, Final residual = 3.7411006e-12, No Iterations 1
DILUPBiCGStab:  Solving for Uy, Initial residual = 5.7946961e-05, Final residual = 3.3393339e-12, No Iterations 1
DILUPBiCGStab:  Solving for Uz, Initial residual = 6.7896177e-05, Final residual = 3.778532e-12, No Iterations 1
DILUPBiCGStab:  Solving for h, Initial residual = 0.054914196, Final residual = 7.0730854e-06, No Iterations 1
DICPCG:  Solving for p_rgh, Initial residual = 7.3858289e-08, Final residual = 7.3858289e-08, No Iterations 0
diagonal:  Solving for rho, Initial residual = 0, Final residual = 0, No Iterations 0
time step continuity errors : sum local = 3.9330005e-17, global = 3.0121774e-17, cumulative = -1.9273966e-16
PIMPLE: iteration 2
DILUPBiCGStab:  Solving for Ux, Initial residual = 3.404866e-09, Final residual = 3.404866e-09, No Iterations 0
DILUPBiCGStab:  Solving for Uy, Initial residual = 3.2523628e-09, Final residual = 3.2523628e-09, No Iterations 0
DILUPBiCGStab:  Solving for Uz, Initial residual = 3.3919442e-09, Final residual = 3.3919442e-09, No Iterations 0
DILUPBiCGStab:  Solving for h, Initial residual = 6.0797874e-06, Final residual = 1.4513475e-09, No Iterations 1
DICPCG:  Solving for p_rgh, Initial residual = 7.3857696e-08, Final residual = 7.3857696e-08, No Iterations 0
diagonal:  Solving for rho, Initial residual = 0, Final residual = 0, No Iterations 0
time step continuity errors : sum local = 3.9330005e-17, global = 3.0121774e-17, cumulative = -1.6261788e-16
ExecutionTime = 42.11 s  ClockTime = 75 s

Courant Number mean: 8.3428136e-27 max: 1.5667467e-23
deltaT = 1.0696611e-08
Time = 5.8165616336e-08

PIMPLE: iteration 1
diagonal:  Solving for rho, Initial residual = 0, Final residual = 0, No Iterations 0
DILUPBiCGStab:  Solving for Ux, Initial residual = 6.8308363e-06, Final residual = 3.9052296e-13, No Iterations 1
DILUPBiCGStab:  Solving for Uy, Initial residual = 5.8467749e-06, Final residual = 3.4855109e-13, No Iterations 1
DILUPBiCGStab:  Solving for Uz, Initial residual = 6.8508654e-06, Final residual = 3.9442904e-13, No Iterations 1
DILUPBiCGStab:  Solving for h, Initial residual = 0.05364712, Final residual = 9.9232444e-06, No Iterations 1
DICPCG:  Solving for p_rgh, Initial residual = 7.4278643e-08, Final residual = 7.4278643e-08, No Iterations 0
diagonal:  Solving for rho, Initial residual = 0, Final residual = 0, No Iterations 0
time step continuity errors : sum local = 4.0985976e-17, global = 4.0010859e-18, cumulative = -1.586168e-16
PIMPLE: iteration 2
DILUPBiCGStab:  Solving for Ux, Initial residual = 3.4930986e-10, Final residual = 3.4930986e-10, No Iterations 0
DILUPBiCGStab:  Solving for Uy, Initial residual = 3.3364139e-10, Final residual = 3.3364139e-10, No Iterations 0
DILUPBiCGStab:  Solving for Uz, Initial residual = 3.4798442e-10, Final residual = 3.4798442e-10, No Iterations 0
DILUPBiCGStab:  Solving for h, Initial residual = 8.5577227e-06, Final residual = 2.8921321e-09, No Iterations 1
DICPCG:  Solving for p_rgh, Initial residual = 7.4278581e-08, Final residual = 7.4278581e-08, No Iterations 0
diagonal:  Solving for rho, Initial residual = 0, Final residual = 0, No Iterations 0
time step continuity errors : sum local = 4.0985976e-17, global = 4.0010859e-18, cumulative = -1.5461571e-16
ExecutionTime = 44.16 s  ClockTime = 77 s

Courant Number mean: 1.0020168e-26 max: 1.8814512e-23
deltaT = 1.2835933e-08
Time = 7.1001549800e-08

PIMPLE: iteration 1
diagonal:  Solving for rho, Initial residual = 0, Final residual = 0, No Iterations 0
DILUPBiCGStab:  Solving for Ux, Initial residual = 5.8380209e-07, Final residual = 3.4344884e-14, No Iterations 1
DILUPBiCGStab:  Solving for Uy, Initial residual = 4.9968435e-07, Final residual = 3.0650889e-14, No Iterations 1
DILUPBiCGStab:  Solving for Uz, Initial residual = 5.8551374e-07, Final residual = 3.4688285e-14, No Iterations 1
DILUPBiCGStab:  Solving for h, Initial residual = 0.052601879, Final residual = 1.3943712e-05, No Iterations 1
DICPCG:  Solving for p_rgh, Initial residual = 7.4636107e-08, Final residual = 7.4636107e-08, No Iterations 0
diagonal:  Solving for rho, Initial residual = 0, Final residual = 0, No Iterations 0
time step continuity errors : sum local = 9.415826e-17, global = 9.415826e-17, cumulative = -6.0457451e-17
PIMPLE: iteration 2
DILUPBiCGStab:  Solving for Ux, Initial residual = 3.0272608e-11, Final residual = 3.0272608e-11, No Iterations 0
DILUPBiCGStab:  Solving for Uy, Initial residual = 2.8912825e-11, Final residual = 2.8912825e-11, No Iterations 0
DILUPBiCGStab:  Solving for Uz, Initial residual = 3.0157763e-11, Final residual = 3.0157763e-11, No Iterations 0
DILUPBiCGStab:  Solving for h, Initial residual = 1.205782e-05, Final residual = 5.739913e-09, No Iterations 1
DICPCG:  Solving for p_rgh, Initial residual = 7.4636102e-08, Final residual = 7.4636102e-08, No Iterations 0
diagonal:  Solving for rho, Initial residual = 0, Final residual = 0, No Iterations 0
time step continuity errors : sum local = 9.415826e-17, global = 9.415826e-17, cumulative = 3.3700808e-17
ExecutionTime = 46.17 s  ClockTime = 79 s

Courant Number mean: 1.2024376e-26 max: 2.2577414e-23
deltaT = 1.540312e-08
Time = 8.6404669957e-08

PIMPLE: iteration 1
diagonal:  Solving for rho, Initial residual = 0, Final residual = 0, No Iterations 0
DILUPBiCGStab:  Solving for Ux, Initial residual = 4.2179552e-08, Final residual = 4.2179552e-08, No Iterations 0
DILUPBiCGStab:  Solving for Uy, Initial residual = 3.610115e-08, Final residual = 3.610115e-08, No Iterations 0
DILUPBiCGStab:  Solving for Uz, Initial residual = 4.2303208e-08, Final residual = 4.2303208e-08, No Iterations 0
DILUPBiCGStab:  Solving for h, Initial residual = 0.051762441, Final residual = 1.9644895e-05, No Iterations 1
DICPCG:  Solving for p_rgh, Initial residual = 7.4941718e-08, Final residual = 7.4941718e-08, No Iterations 0
diagonal:  Solving for rho, Initial residual = 0, Final residual = 0, No Iterations 0
time step continuity errors : sum local = 7.1671176e-17, global = 7.1462568e-17, cumulative = 1.0516338e-16
PIMPLE: iteration 2
DILUPBiCGStab:  Solving for Ux, Initial residual = 2.7462782e-11, Final residual = 2.7462782e-11, No Iterations 0
DILUPBiCGStab:  Solving for Uy, Initial residual = 2.3827976e-11, Final residual = 2.3827976e-11, No Iterations 0
DILUPBiCGStab:  Solving for Uz, Initial residual = 2.7501836e-11, Final residual = 2.7501836e-11, No Iterations 0
DILUPBiCGStab:  Solving for h, Initial residual = 1.7025775e-05, Final residual = 1.1368055e-08, No Iterations 1
DICPCG:  Solving for p_rgh, Initial residual = 7.4941722e-08, Final residual = 7.4941722e-08, No Iterations 0
diagonal:  Solving for rho, Initial residual = 0, Final residual = 0, No Iterations 0
time step continuity errors : sum local = 7.1671176e-17, global = 7.1462568e-17, cumulative = 1.7662594e-16
ExecutionTime = 48.24 s  ClockTime = 81 s

Courant Number mean: 1.4429267e-26 max: 2.7092894e-23
deltaT = 1.8472163e-08
Time = 1.0487683285e-07

PIMPLE: iteration 1
diagonal:  Solving for rho, Initial residual = 0, Final residual = 0, No Iterations 0
DILUPBiCGStab:  Solving for Ux, Initial residual = 2.5704976e-09, Final residual = 2.5704976e-09, No Iterations 0
DILUPBiCGStab:  Solving for Uy, Initial residual = 2.2000197e-09, Final residual = 2.2000197e-09, No Iterations 0
DILUPBiCGStab:  Solving for Uz, Initial residual = 2.5780329e-09, Final residual = 2.5780329e-09, No Iterations 0
DILUPBiCGStab:  Solving for h, Initial residual = 0.051053737, Final residual = 2.7670932e-05, No Iterations 1
DICPCG:  Solving for p_rgh, Initial residual = 7.5201301e-08, Final residual = 7.5201301e-08, No Iterations 0
diagonal:  Solving for rho, Initial residual = 0, Final residual = 0, No Iterations 0
time step continuity errors : sum local = 3.2511327e-17, global = 1.6955514e-17, cumulative = 1.9358146e-16
PIMPLE: iteration 2
DILUPBiCGStab:  Solving for Ux, Initial residual = 1.6909683e-12, Final residual = 1.6909683e-12, No Iterations 0
DILUPBiCGStab:  Solving for Uy, Initial residual = 1.4671517e-12, Final residual = 1.4671517e-12, No Iterations 0
DILUPBiCGStab:  Solving for Uz, Initial residual = 1.6933686e-12, Final residual = 1.6933686e-12, No Iterations 0
DILUPBiCGStab:  Solving for h, Initial residual = 2.4026537e-05, Final residual = 2.2367217e-08, No Iterations 1
DICPCG:  Solving for p_rgh, Initial residual = 7.5201301e-08, Final residual = 7.5201301e-08, No Iterations 0
diagonal:  Solving for rho, Initial residual = 0, Final residual = 0, No Iterations 0
time step continuity errors : sum local = 3.2511327e-17, global = 1.6955514e-17, cumulative = 2.1053697e-16
ExecutionTime = 50.34 s  ClockTime = 83 s

Courant Number mean: 1.7304272e-26 max: 3.24911e-23
deltaT = 2.2149879e-08
Time = 1.2702671144e-07

PIMPLE: iteration 1
diagonal:  Solving for rho, Initial residual = 0, Final residual = 0, No Iterations 0
DILUPBiCGStab:  Solving for Ux, Initial residual = 1.3195943e-10, Final residual = 1.3195943e-10, No Iterations 0
DILUPBiCGStab:  Solving for Uy, Initial residual = 1.1293826e-10, Final residual = 1.1293826e-10, No Iterations 0
DILUPBiCGStab:  Solving for Uz, Initial residual = 1.3234624e-10, Final residual = 1.3234624e-10, No Iterations 0
DILUPBiCGStab:  Solving for h, Initial residual = 0.050470886, Final residual = 3.8984893e-05, No Iterations 1
DICPCG:  Solving for p_rgh, Initial residual = 7.5421699e-08, Final residual = 7.5421699e-08, No Iterations 0
diagonal:  Solving for rho, Initial residual = 0, Final residual = 0, No Iterations 0
time step continuity errors : sum local = 4.5230668e-17, global = 2.9613608e-17, cumulative = 2.4015058e-16
PIMPLE: iteration 2
DILUPBiCGStab:  Solving for Ux, Initial residual = 8.7570994e-14, Final residual = 8.7570994e-14, No Iterations 0
DILUPBiCGStab:  Solving for Uy, Initial residual = 7.5983485e-14, Final residual = 7.5983485e-14, No Iterations 0
DILUPBiCGStab:  Solving for Uz, Initial residual = 8.7700363e-14, Final residual = 8.7700363e-14, No Iterations 0
DILUPBiCGStab:  Solving for h, Initial residual = 3.3902755e-05, Final residual = 4.3759237e-08, No Iterations 1
DICPCG:  Solving for p_rgh, Initial residual = 7.5421699e-08, Final residual = 7.5421699e-08, No Iterations 0
diagonal:  Solving for rho, Initial residual = 0, Final residual = 0, No Iterations 0
time step continuity errors : sum local = 4.5230668e-17, global = 2.9613608e-17, cumulative = 2.6976419e-16
ExecutionTime = 52.56 s  ClockTime = 86 s

Courant Number mean: 2.0749466e-26 max: 3.8959914e-23
deltaT = 2.6628269e-08
Time = 1.5365498077e-07

PIMPLE: iteration 1
diagonal:  Solving for rho, Initial residual = 0, Final residual = 0, No Iterations 0
DILUPBiCGStab:  Solving for Ux, Initial residual = 5.6980451e-12, Final residual = 5.6980451e-12, No Iterations 0
DILUPBiCGStab:  Solving for Uy, Initial residual = 4.8766182e-12, Final residual = 4.8766182e-12, No Iterations 0
DILUPBiCGStab:  Solving for Uz, Initial residual = 5.7147507e-12, Final residual = 5.7147507e-12, No Iterations 0
DILUPBiCGStab:  Solving for h, Initial residual = 0.050116115, Final residual = 5.5296988e-05, No Iterations 1
DICPCG:  Solving for p_rgh, Initial residual = 7.5610848e-08, Final residual = 7.5610848e-08, No Iterations 0
diagonal:  Solving for rho, Initial residual = 0, Final residual = 0, No Iterations 0
time step continuity errors : sum local = 4.9711599e-17, global = -1.0632799e-17, cumulative = 2.5913139e-16
PIMPLE: iteration 2
DILUPBiCGStab:  Solving for Ux, Initial residual = 3.9747912e-15, Final residual = 3.9747912e-15, No Iterations 0
DILUPBiCGStab:  Solving for Uy, Initial residual = 3.492821e-15, Final residual = 3.492821e-15, No Iterations 0
DILUPBiCGStab:  Solving for Uz, Initial residual = 3.9843926e-15, Final residual = 3.9843926e-15, No Iterations 0
DILUPBiCGStab:  Solving for h, Initial residual = 4.8134531e-05, Final residual = 8.6043331e-08, No Iterations 1
DICPCG:  Solving for p_rgh, Initial residual = 7.5610848e-08, Final residual = 7.5610848e-08, No Iterations 0
diagonal:  Solving for rho, Initial residual = 0, Final residual = 0, No Iterations 0
time step continuity errors : sum local = 4.9711599e-17, global = -1.0632799e-17, cumulative = 2.4849859e-16
ExecutionTime = 54.48 s  ClockTime = 88 s

Courant Number mean: 2.4944713e-26 max: 4.6837052e-23
deltaT = 3.1883849e-08
Time = 1.8553882958e-07

PIMPLE: iteration 1
diagonal:  Solving for rho, Initial residual = 0, Final residual = 0, No Iterations 0
DILUPBiCGStab:  Solving for Ux, Initial residual = 2.0616342e-13, Final residual = 2.0616342e-13, No Iterations 0
DILUPBiCGStab:  Solving for Uy, Initial residual = 1.7644165e-13, Final residual = 1.7644165e-13, No Iterations 0
DILUPBiCGStab:  Solving for Uz, Initial residual = 2.0676946e-13, Final residual = 2.0676946e-13, No Iterations 0
DILUPBiCGStab:  Solving for h, Initial residual = 0.04963418, Final residual = 7.7369964e-05, No Iterations 1
DICPCG:  Solving for p_rgh, Initial residual = 7.5767112e-08, Final residual = 7.5767112e-08, No Iterations 0
diagonal:  Solving for rho, Initial residual = 0, Final residual = 0, No Iterations 0
time step continuity errors : sum local = 5.4385711e-17, global = 2.1989279e-17, cumulative = 2.7048787e-16
PIMPLE: iteration 2
DILUPBiCGStab:  Solving for Ux, Initial residual = 1.036022e-15, Final residual = 1.036022e-15, No Iterations 0
DILUPBiCGStab:  Solving for Uy, Initial residual = 1.0329105e-15, Final residual = 1.0329105e-15, No Iterations 0
DILUPBiCGStab:  Solving for Uz, Initial residual = 1.0361446e-15, Final residual = 1.0361446e-15, No Iterations 0
DILUPBiCGStab:  Solving for h, Initial residual = 6.7435718e-05, Final residual = 3.4982801e-10, No Iterations 1
DICPCG:  Solving for p_rgh, Initial residual = 7.5767112e-08, Final residual = 7.5767112e-08, No Iterations 0
diagonal:  Solving for rho, Initial residual = 0, Final residual = 0, No Iterations 0
time step continuity errors : sum local = 5.4385711e-17, global = 2.1989279e-17, cumulative = 2.9247715e-16
ExecutionTime = 56.42 s  ClockTime = 90 s

Courant Number mean: 2.9868012e-26 max: 5.6081205e-23
deltaT = 3.8210009e-08
Time = 2.2374883887e-07

PIMPLE: iteration 1
diagonal:  Solving for rho, Initial residual = 0, Final residual = 0, No Iterations 0
DILUPBiCGStab:  Solving for Ux, Initial residual = 6.3689561e-15, Final residual = 6.3689561e-15, No Iterations 0
DILUPBiCGStab:  Solving for Uy, Initial residual = 5.4834036e-15, Final residual = 5.4834036e-15, No Iterations 0
DILUPBiCGStab:  Solving for Uz, Initial residual = 6.3872679e-15, Final residual = 6.3872679e-15, No Iterations 0
DILUPBiCGStab:  Solving for h, Initial residual = 0.049277807, Final residual = 0.00010819893, No Iterations 1
DICPCG:  Solving for p_rgh, Initial residual = 7.5899647e-08, Final residual = 7.5899647e-08, No Iterations 0
diagonal:  Solving for rho, Initial residual = 0, Final residual = 0, No Iterations 0
time step continuity errors : sum local = 7.4197038e-17, global = -7.4197038e-17, cumulative = 2.1828011e-16
PIMPLE: iteration 2
DILUPBiCGStab:  Solving for Ux, Initial residual = 1.0157503e-15, Final residual = 1.0157503e-15, No Iterations 0
DILUPBiCGStab:  Solving for Uy, Initial residual = 1.0157188e-15, Final residual = 1.0157188e-15, No Iterations 0
DILUPBiCGStab:  Solving for Uz, Initial residual = 1.0189991e-15, Final residual = 1.0189991e-15, No Iterations 0
DILUPBiCGStab:  Solving for h, Initial residual = 9.4399515e-05, Final residual = 9.2566997e-10, No Iterations 1
DICPCG:  Solving for p_rgh, Initial residual = 7.5899647e-08, Final residual = 7.5899647e-08, No Iterations 0
diagonal:  Solving for rho, Initial residual = 0, Final residual = 0, No Iterations 0
time step continuity errors : sum local = 7.4197038e-17, global = -7.4197038e-17, cumulative = 1.4408307e-16
ExecutionTime = 58.49 s  ClockTime = 92 s

Courant Number mean: 3.5794205e-26 max: 6.7208425e-23
deltaT = 4.5925492e-08
Time = 2.6967433081e-07

PIMPLE: iteration 1
diagonal:  Solving for rho, Initial residual = 0, Final residual = 0, No Iterations 0
DILUPBiCGStab:  Solving for Ux, Initial residual = 1.0122376e-15, Final residual = 1.0122376e-15, No Iterations 0
DILUPBiCGStab:  Solving for Uy, Initial residual = 1.0064755e-15, Final residual = 1.0064755e-15, No Iterations 0
DILUPBiCGStab:  Solving for Uz, Initial residual = 1.0156482e-15, Final residual = 1.0156482e-15, No Iterations 0
DILUPBiCGStab:  Solving for h, Initial residual = 0.04911883, Final residual = 0.00015181389, No Iterations 1
DICPCG:  Solving for p_rgh, Initial residual = 7.6012919e-08, Final residual = 7.6012919e-08, No Iterations 0
diagonal:  Solving for rho, Initial residual = 0, Final residual = 0, No Iterations 0
time step continuity errors : sum local = 5.607622e-17, global = -5.0587937e-17, cumulative = 9.3495134e-17
PIMPLE: iteration 2
DILUPBiCGStab:  Solving for Ux, Initial residual = 1.0046031e-15, Final residual = 1.0046031e-15, No Iterations 0
DILUPBiCGStab:  Solving for Uy, Initial residual = 1.0091738e-15, Final residual = 1.0091738e-15, No Iterations 0
DILUPBiCGStab:  Solving for Uz, Initial residual = 1.0070205e-15, Final residual = 1.0070205e-15, No Iterations 0
DILUPBiCGStab:  Solving for h, Initial residual = 0.00013251757, Final residual = 2.4510576e-09, No Iterations 1
DICPCG:  Solving for p_rgh, Initial residual = 7.6012919e-08, Final residual = 7.6012919e-08, No Iterations 0
diagonal:  Solving for rho, Initial residual = 0, Final residual = 0, No Iterations 0
time step continuity errors : sum local = 5.607622e-17, global = -5.0587937e-17, cumulative = 4.2907197e-17
ExecutionTime = 60.4 s  ClockTime = 94 s

Courant Number mean: 4.3021881e-26 max: 8.0779354e-23
deltaT = 4.9792902e-08
Time = 3.1946723259e-07

PIMPLE: iteration 1
diagonal:  Solving for rho, Initial residual = 0, Final residual = 0, No Iterations 0
DILUPBiCGStab:  Solving for Ux, Initial residual = 9.8355275e-16, Final residual = 9.8355275e-16, No Iterations 0
DILUPBiCGStab:  Solving for Uy, Initial residual = 9.8805579e-16, Final residual = 9.8805579e-16, No Iterations 0
DILUPBiCGStab:  Solving for Uz, Initial residual = 9.8595317e-16, Final residual = 9.8595317e-16, No Iterations 0
DILUPBiCGStab:  Solving for h, Initial residual = 0.04441585, Final residual = 0.00015927511, No Iterations 1
DICPCG:  Solving for p_rgh, Initial residual = 7.6056748e-08, Final residual = 7.6056748e-08, No Iterations 0
diagonal:  Solving for rho, Initial residual = 0, Final residual = 0, No Iterations 0
time step continuity errors : sum local = 9.776147e-17, global = -9.7726933e-17, cumulative = -5.4819736e-17
PIMPLE: iteration 2
DILUPBiCGStab:  Solving for Ux, Initial residual = 1.0050192e-15, Final residual = 1.0050192e-15, No Iterations 0
DILUPBiCGStab:  Solving for Uy, Initial residual = 1.0098517e-15, Final residual = 1.0098517e-15, No Iterations 0
DILUPBiCGStab:  Solving for Uz, Initial residual = 1.0098154e-15, Final residual = 1.0098154e-15, No Iterations 0
DILUPBiCGStab:  Solving for h, Initial residual = 0.00014075558, Final residual = 3.3718365e-09, No Iterations 1
DICPCG:  Solving for p_rgh, Initial residual = 7.6056748e-08, Final residual = 7.6056748e-08, No Iterations 0
diagonal:  Solving for rho, Initial residual = 0, Final residual = 0, No Iterations 0
time step continuity errors : sum local = 9.776147e-17, global = -9.7726933e-17, cumulative = -1.5254667e-16
ExecutionTime = 62.41 s  ClockTime = 96 s

Courant Number mean: 4.6644776e-26 max: 8.7581825e-23
deltaT = 4.9792902e-08
Time = 3.6926013437e-07

PIMPLE: iteration 1
diagonal:  Solving for rho, Initial residual = 0, Final residual = 0, No Iterations 0
DILUPBiCGStab:  Solving for Ux, Initial residual = 9.8552214e-16, Final residual = 9.8552214e-16, No Iterations 0
DILUPBiCGStab:  Solving for Uy, Initial residual = 9.9027103e-16, Final residual = 9.9027103e-16, No Iterations 0
DILUPBiCGStab:  Solving for Uz, Initial residual = 9.902153e-16, Final residual = 9.902153e-16, No Iterations 0
DILUPBiCGStab:  Solving for h, Initial residual = 0.037772382, Final residual = 0.00013525787, No Iterations 1
DICPCG:  Solving for p_rgh, Initial residual = 7.6056748e-08, Final residual = 7.6056748e-08, No Iterations 0
diagonal:  Solving for rho, Initial residual = 0, Final residual = 0, No Iterations 0
time step continuity errors : sum local = 9.776147e-17, global = -9.7726933e-17, cumulative = -2.502736e-16
PIMPLE: iteration 2
DILUPBiCGStab:  Solving for Ux, Initial residual = 1, Final residual = 2.8973466e-09, No Iterations 1
DILUPBiCGStab:  Solving for Uy, Initial residual = 1, Final residual = 2.7690558e-09, No Iterations 1
DILUPBiCGStab:  Solving for Uz, Initial residual = 1, Final residual = 2.8973466e-09, No Iterations 1
DILUPBiCGStab:  Solving for h, Initial residual = 0.0001216535, Final residual = 2.8359853e-09, No Iterations 1
DICPCG:  Solving for p_rgh, Initial residual = 1, Final residual = 9.8093241e-08, No Iterations 225
diagonal:  Solving for rho, Initial residual = 0, Final residual = 0, No Iterations 0
time step continuity errors : sum local = 1.2356936e-15, global = -9.3146763e-17, cumulative = -3.4342036e-16
ExecutionTime = 66.86 s  ClockTime = 100 s

Courant Number mean: 3.436819e-09 max: 1.9326648e-05
deltaT = 4.9792902e-08
Time = 4.1905303615e-07

PIMPLE: iteration 1
diagonal:  Solving for rho, Initial residual = 0, Final residual = 0, No Iterations 0
DILUPBiCGStab:  Solving for Ux, Initial residual = 0.026528564, Final residual = 1.2097071e-06, No Iterations 1
DILUPBiCGStab:  Solving for Uy, Initial residual = 0.015186022, Final residual = 9.1746691e-07, No Iterations 1
DILUPBiCGStab:  Solving for Uz, Initial residual = 0.026528564, Final residual = 1.2097071e-06, No Iterations 1
DILUPBiCGStab:  Solving for h, Initial residual = 0.032929703, Final residual = 0.00012332712, No Iterations 1
DICPCG:  Solving for p_rgh, Initial residual = 0.094427388, Final residual = 9.3016848e-08, No Iterations 205
diagonal:  Solving for rho, Initial residual = 0, Final residual = 0, No Iterations 0
time step continuity errors : sum local = 2.4923784e-15, global = -9.3118903e-17, cumulative = -4.3653927e-16
PIMPLE: iteration 2
DILUPBiCGStab:  Solving for Ux, Initial residual = 0.54312036, Final residual = 1.9963014e-10, No Iterations 1
DILUPBiCGStab:  Solving for Uy, Initial residual = 0.3826502, Final residual = 2.7399123e-11, No Iterations 1
DILUPBiCGStab:  Solving for Uz, Initial residual = 0.54312036, Final residual = 1.9963014e-10, No Iterations 1
DILUPBiCGStab:  Solving for h, Initial residual = 0.00011395768, Final residual = 3.5699676e-09, No Iterations 1
DICPCG:  Solving for p_rgh, Initial residual = 0.87597213, Final residual = 9.1135566e-08, No Iterations 217
diagonal:  Solving for rho, Initial residual = 0, Final residual = 0, No Iterations 0
time step continuity errors : sum local = 3.6785082e-15, global = -9.3104627e-17, cumulative = -5.2964389e-16
ExecutionTime = 73.42 s  ClockTime = 107 s

Courant Number mean: 8.1792716e-09 max: 7.6686494e-05
deltaT = 4.9792902e-08
Time = 4.6884593793e-07

PIMPLE: iteration 1
diagonal:  Solving for rho, Initial residual = 0, Final residual = 0, No Iterations 0
DILUPBiCGStab:  Solving for Ux, Initial residual = 0.09333957, Final residual = 4.2428526e-06, No Iterations 1
DILUPBiCGStab:  Solving for Uy, Initial residual = 0.018413356, Final residual = 6.7092523e-07, No Iterations 1
DILUPBiCGStab:  Solving for Uz, Initial residual = 0.09333957, Final residual = 4.2428526e-06, No Iterations 1
DILUPBiCGStab:  Solving for h, Initial residual = 0.03490635, Final residual = 0.00016560686, No Iterations 1
DICPCG:  Solving for p_rgh, Initial residual = 0.19334004, Final residual = 9.6819292e-08, No Iterations 115
diagonal:  Solving for rho, Initial residual = 0, Final residual = 0, No Iterations 0
time step continuity errors : sum local = 6.0758764e-15, global = -9.2914439e-17, cumulative = -6.2255833e-16
PIMPLE: iteration 2
DILUPBiCGStab:  Solving for Ux, Initial residual = 0.86049319, Final residual = 2.4180763e-10, No Iterations 1
DILUPBiCGStab:  Solving for Uy, Initial residual = 0.34964588, Final residual = 1.1145693e-10, No Iterations 1
DILUPBiCGStab:  Solving for Uz, Initial residual = 0.86049319, Final residual = 2.4180763e-10, No Iterations 1
DILUPBiCGStab:  Solving for h, Initial residual = 0.00015275697, Final residual = 5.2137707e-09, No Iterations 1
DICPCG:  Solving for p_rgh, Initial residual = 0.89477426, Final residual = 9.9280452e-08, No Iterations 229
diagonal:  Solving for rho, Initial residual = 0, Final residual = 0, No Iterations 0
time step continuity errors : sum local = 1.2762933e-14, global = -9.3151138e-17, cumulative = -7.1570947e-16
ExecutionTime = 79.2 s  ClockTime = 112 s

Courant Number mean: 2.0297205e-08 max: 9.6415902e-05
deltaT = 4.9792902e-08
Time = 5.1863883971e-07

PIMPLE: iteration 1
diagonal:  Solving for rho, Initial residual = 0, Final residual = 0, No Iterations 0
DILUPBiCGStab:  Solving for Ux, Initial residual = 0.058712229, Final residual = 2.0093866e-06, No Iterations 1
DILUPBiCGStab:  Solving for Uy, Initial residual = 0.014576908, Final residual = 9.369727e-07, No Iterations 1
DILUPBiCGStab:  Solving for Uz, Initial residual = 0.058712229, Final residual = 2.0093866e-06, No Iterations 1
DILUPBiCGStab:  Solving for h, Initial residual = 0.033244276, Final residual = 0.00017790611, No Iterations 1
DICPCG:  Solving for p_rgh, Initial residual = 0.15597614, Final residual = 9.2053758e-08, No Iterations 219
diagonal:  Solving for rho, Initial residual = 0, Final residual = 0, No Iterations 0
time step continuity errors : sum local = 1.1152819e-14, global = -9.3009994e-17, cumulative = -8.0871947e-16
PIMPLE: iteration 2
DILUPBiCGStab:  Solving for Ux, Initial residual = 0.46216141, Final residual = 7.7119684e-10, No Iterations 1
DILUPBiCGStab:  Solving for Uy, Initial residual = 0.057748862, Final residual = 1.9315299e-10, No Iterations 1
DILUPBiCGStab:  Solving for Uz, Initial residual = 0.46216141, Final residual = 7.7119684e-10, No Iterations 1
DILUPBiCGStab:  Solving for h, Initial residual = 0.00016639991, Final residual = 5.6232524e-09, No Iterations 1
DICPCG:  Solving for p_rgh, Initial residual = 0.90349018, Final residual = 9.4699617e-08, No Iterations 213
diagonal:  Solving for rho, Initial residual = 0, Final residual = 0, No Iterations 0
time step continuity errors : sum local = 2.0158491e-14, global = -9.307078e-17, cumulative = -9.0179025e-16
ExecutionTime = 86.01 s  ClockTime = 119 s

Courant Number mean: 3.5440789e-08 max: 0.00022966376
deltaT = 4.9792902e-08
Time = 5.6843174149e-07

PIMPLE: iteration 1
diagonal:  Solving for rho, Initial residual = 0, Final residual = 0, No Iterations 0
DILUPBiCGStab:  Solving for Ux, Initial residual = 0.072161767, Final residual = 4.6813708e-06, No Iterations 1
DILUPBiCGStab:  Solving for Uy, Initial residual = 0.014571045, Final residual = 1.236708e-06, No Iterations 1
DILUPBiCGStab:  Solving for Uz, Initial residual = 0.072161767, Final residual = 4.6813708e-06, No Iterations 1
DILUPBiCGStab:  Solving for h, Initial residual = 0.029852508, Final residual = 0.00015843472, No Iterations 1
DICPCG:  Solving for p_rgh, Initial residual = 0.25882081, Final residual = 8.9657937e-08, No Iterations 215
diagonal:  Solving for rho, Initial residual = 0, Final residual = 0, No Iterations 0
time step continuity errors : sum local = 1.6200152e-14, global = -9.307078e-17, cumulative = -9.9486103e-16
PIMPLE: iteration 2
DILUPBiCGStab:  Solving for Ux, Initial residual = 0.24247095, Final residual = 9.4406134e-10, No Iterations 1
DILUPBiCGStab:  Solving for Uy, Initial residual = 0.051130106, Final residual = 2.1857717e-10, No Iterations 1
DILUPBiCGStab:  Solving for Uz, Initial residual = 0.24247095, Final residual = 9.4406134e-10, No Iterations 1
DILUPBiCGStab:  Solving for h, Initial residual = 0.00014944607, Final residual = 4.9612354e-09, No Iterations 1
DICPCG:  Solving for p_rgh, Initial residual = 0.83956518, Final residual = 9.6218503e-08, No Iterations 218
diagonal:  Solving for rho, Initial residual = 0, Final residual = 0, No Iterations 0
time step continuity errors : sum local = 2.838115e-14, global = -9.3092424e-17, cumulative = -1.0879534e-15
ExecutionTime = 92.88 s  ClockTime = 126 s

Courant Number mean: 4.7653069e-08 max: 0.00024543604
deltaT = 4.9792902e-08
Time = 6.1822464327e-07

PIMPLE: iteration 1
diagonal:  Solving for rho, Initial residual = 0, Final residual = 0, No Iterations 0
DILUPBiCGStab:  Solving for Ux, Initial residual = 0.054178398, Final residual = 4.0291213e-06, No Iterations 1
DILUPBiCGStab:  Solving for Uy, Initial residual = 0.012495883, Final residual = 8.4958672e-07, No Iterations 1
DILUPBiCGStab:  Solving for Uz, Initial residual = 0.054178398, Final residual = 4.0291213e-06, No Iterations 1
DILUPBiCGStab:  Solving for h, Initial residual = 0.027110144, Final residual = 0.00013199272, No Iterations 1
DICPCG:  Solving for p_rgh, Initial residual = 0.28055087, Final residual = 9.8179217e-08, No Iterations 100
diagonal:  Solving for rho, Initial residual = 0, Final residual = 0, No Iterations 0
time step continuity errors : sum local = 2.1034334e-14, global = -9.309818e-17, cumulative = -1.1810516e-15
PIMPLE: iteration 2
DILUPBiCGStab:  Solving for Ux, Initial residual = 0.38139348, Final residual = 4.624067e-10, No Iterations 1
DILUPBiCGStab:  Solving for Uy, Initial residual = 0.049361043, Final residual = 1.2032245e-10, No Iterations 1
DILUPBiCGStab:  Solving for Uz, Initial residual = 0.38139348, Final residual = 4.624067e-10, No Iterations 1
DILUPBiCGStab:  Solving for h, Initial residual = 0.00012603998, Final residual = 4.0514409e-09, No Iterations 1
DICPCG:  Solving for p_rgh, Initial residual = 0.75802219, Final residual = 9.3665309e-08, No Iterations 221
diagonal:  Solving for rho, Initial residual = 0, Final residual = 0, No Iterations 0
time step continuity errors : sum local = 1.9440562e-14, global = -9.3047525e-17, cumulative = -1.2740992e-15
ExecutionTime = 98.24 s  ClockTime = 131 s

Courant Number mean: 5.3666841e-08 max: 0.0002480248
deltaT = 4.9792902e-08
Time = 6.6801754505e-07

PIMPLE: iteration 1
diagonal:  Solving for rho, Initial residual = 0, Final residual = 0, No Iterations 0
DILUPBiCGStab:  Solving for Ux, Initial residual = 0.040306495, Final residual = 2.6604533e-06, No Iterations 1
DILUPBiCGStab:  Solving for Uy, Initial residual = 0.0099697442, Final residual = 6.987496e-07, No Iterations 1
DILUPBiCGStab:  Solving for Uz, Initial residual = 0.040306495, Final residual = 2.6604533e-06, No Iterations 1
DILUPBiCGStab:  Solving for h, Initial residual = 0.025311388, Final residual = 0.00013559375, No Iterations 1
DICPCG:  Solving for p_rgh, Initial residual = 0.21327611, Final residual = 9.8825752e-08, No Iterations 218
diagonal:  Solving for rho, Initial residual = 0, Final residual = 0, No Iterations 0
time step continuity errors : sum local = 1.6689782e-14, global = -9.2952891e-17, cumulative = -1.367052e-15
PIMPLE: iteration 2
DILUPBiCGStab:  Solving for Ux, Initial residual = 0.18713348, Final residual = 4.7420066e-10, No Iterations 1
DILUPBiCGStab:  Solving for Uy, Initial residual = 0.045999082, Final residual = 1.0704219e-10, No Iterations 1
DILUPBiCGStab:  Solving for Uz, Initial residual = 0.18713348, Final residual = 4.7420066e-10, No Iterations 1
DILUPBiCGStab:  Solving for h, Initial residual = 0.00012779229, Final residual = 4.2984132e-09, No Iterations 1
DICPCG:  Solving for p_rgh, Initial residual = 0.68208561, Final residual = 9.0043002e-08, No Iterations 228
diagonal:  Solving for rho, Initial residual = 0, Final residual = 0, No Iterations 0
time step continuity errors : sum local = 2.4255239e-14, global = -9.3037394e-17, cumulative = -1.4600894e-15
ExecutionTime = 105.01 s  ClockTime = 138 s

Courant Number mean: 6.7373597e-08 max: 0.0001827956
deltaT = 4.9792902e-08
Time = 7.1781044683e-07

PIMPLE: iteration 1
diagonal:  Solving for rho, Initial residual = 0, Final residual = 0, No Iterations 0
DILUPBiCGStab:  Solving for Ux, Initial residual = 0.028154805, Final residual = 1.5837675e-06, No Iterations 1
DILUPBiCGStab:  Solving for Uy, Initial residual = 0.0095731824, Final residual = 5.5640492e-07, No Iterations 1
DILUPBiCGStab:  Solving for Uz, Initial residual = 0.028154805, Final residual = 1.5837675e-06, No Iterations 1
DILUPBiCGStab:  Solving for h, Initial residual = 0.02375466, Final residual = 0.00012545613, No Iterations 1
DICPCG:  Solving for p_rgh, Initial residual = 0.17820824, Final residual = 8.2312177e-08, No Iterations 216
diagonal:  Solving for rho, Initial residual = 0, Final residual = 0, No Iterations 0
time step continuity errors : sum local = 2.0651977e-14, global = -9.3068938e-17, cumulative = -1.5531584e-15
PIMPLE: iteration 2
DILUPBiCGStab:  Solving for Ux, Initial residual = 0.28029688, Final residual = 2.6879882e-10, No Iterations 1
DILUPBiCGStab:  Solving for Uy, Initial residual = 0.05692697, Final residual = 8.7055943e-11, No Iterations 1
DILUPBiCGStab:  Solving for Uz, Initial residual = 0.28029688, Final residual = 2.6879882e-10, No Iterations 1
DILUPBiCGStab:  Solving for h, Initial residual = 0.00012078007, Final residual = 3.9036997e-09, No Iterations 1
DICPCG:  Solving for p_rgh, Initial residual = 0.59860005, Final residual = 9.1454335e-08, No Iterations 225
diagonal:  Solving for rho, Initial residual = 0, Final residual = 0, No Iterations 0
time step continuity errors : sum local = 2.4478971e-14, global = -9.297937e-17, cumulative = -1.6461377e-15
ExecutionTime = 111.84 s  ClockTime = 145 s

Courant Number mean: 8.7566158e-08 max: 0.0002281476
deltaT = 4.9792902e-08
Time = 7.6760334862e-07

PIMPLE: iteration 1
diagonal:  Solving for rho, Initial residual = 0, Final residual = 0, No Iterations 0
DILUPBiCGStab:  Solving for Ux, Initial residual = 0.025170924, Final residual = 1.5122573e-06, No Iterations 1
DILUPBiCGStab:  Solving for Uy, Initial residual = 0.0095130516, Final residual = 6.0962297e-07, No Iterations 1
DILUPBiCGStab:  Solving for Uz, Initial residual = 0.025170924, Final residual = 1.5122573e-06, No Iterations 1
DILUPBiCGStab:  Solving for h, Initial residual = 0.022642412, Final residual = 0.00013121246, No Iterations 1
DICPCG:  Solving for p_rgh, Initial residual = 0.15308445, Final residual = 9.1204777e-08, No Iterations 218
diagonal:  Solving for rho, Initial residual = 0, Final residual = 0, No Iterations 0
time step continuity errors : sum local = 2.5354743e-14, global = -9.308897e-17, cumulative = -1.7392267e-15
PIMPLE: iteration 2
DILUPBiCGStab:  Solving for Ux, Initial residual = 0.16903608, Final residual = 2.5875547e-10, No Iterations 1
DILUPBiCGStab:  Solving for Uy, Initial residual = 0.053227741, Final residual = 8.4792732e-11, No Iterations 1
DILUPBiCGStab:  Solving for Uz, Initial residual = 0.16903608, Final residual = 2.5875547e-10, No Iterations 1
DILUPBiCGStab:  Solving for h, Initial residual = 0.00012488643, Final residual = 4.2516197e-09, No Iterations 1
DICPCG:  Solving for p_rgh, Initial residual = 0.56688254, Final residual = 8.6413013e-08, No Iterations 206
diagonal:  Solving for rho, Initial residual = 0, Final residual = 0, No Iterations 0
time step continuity errors : sum local = 2.7994828e-14, global = -9.294299e-17, cumulative = -1.8321697e-15
ExecutionTime = 118.3 s  ClockTime = 151 s

Courant Number mean: 9.0659206e-08 max: 0.00020974009
deltaT = 4.9792902e-08
Time = 8.1739625040e-07

PIMPLE: iteration 1
diagonal:  Solving for rho, Initial residual = 0, Final residual = 0, No Iterations 0
DILUPBiCGStab:  Solving for Ux, Initial residual = 0.018213905, Final residual = 1.1679934e-06, No Iterations 1
DILUPBiCGStab:  Solving for Uy, Initial residual = 0.0071019271, Final residual = 4.9199423e-07, No Iterations 1
DILUPBiCGStab:  Solving for Uz, Initial residual = 0.018213905, Final residual = 1.1679934e-06, No Iterations 1
DILUPBiCGStab:  Solving for h, Initial residual = 0.02057428, Final residual = 0.00011785872, No Iterations 1
DICPCG:  Solving for p_rgh, Initial residual = 0.13629912, Final residual = 9.3320587e-08, No Iterations 213
diagonal:  Solving for rho, Initial residual = 0, Final residual = 0, No Iterations 0
time step continuity errors : sum local = 2.5041015e-14, global = -9.317117e-17, cumulative = -1.9253409e-15
PIMPLE: iteration 2
DILUPBiCGStab:  Solving for Ux, Initial residual = 0.19490671, Final residual = 1.8127493e-10, No Iterations 1
DILUPBiCGStab:  Solving for Uy, Initial residual = 0.057277304, Final residual = 6.6961473e-11, No Iterations 1
DILUPBiCGStab:  Solving for Uz, Initial residual = 0.19490671, Final residual = 1.8127493e-10, No Iterations 1
DILUPBiCGStab:  Solving for h, Initial residual = 0.0001129359, Final residual = 3.7603486e-09, No Iterations 1
DICPCG:  Solving for p_rgh, Initial residual = 0.51552689, Final residual = 8.6522996e-08, No Iterations 225
diagonal:  Solving for rho, Initial residual = 0, Final residual = 0, No Iterations 0
time step continuity errors : sum local = 2.9471373e-14, global = -9.302519e-17, cumulative = -2.0183661e-15
ExecutionTime = 125.08 s  ClockTime = 158 s

Courant Number mean: 1.0599897e-07 max: 0.00023305628
deltaT = 4.9792902e-08
Time = 8.6718915218e-07

PIMPLE: iteration 1
diagonal:  Solving for rho, Initial residual = 0, Final residual = 0, No Iterations 0
DILUPBiCGStab:  Solving for Ux, Initial residual = 0.016040251, Final residual = 8.9617232e-07, No Iterations 1
DILUPBiCGStab:  Solving for Uy, Initial residual = 0.0069297296, Final residual = 3.6536053e-07, No Iterations 1
DILUPBiCGStab:  Solving for Uz, Initial residual = 0.016040251, Final residual = 8.9617232e-07, No Iterations 1
DILUPBiCGStab:  Solving for h, Initial residual = 0.020302367, Final residual = 0.0001168416, No Iterations 1
DICPCG:  Solving for p_rgh, Initial residual = 0.10852357, Final residual = 9.4610258e-08, No Iterations 215
diagonal:  Solving for rho, Initial residual = 0, Final residual = 0, No Iterations 0
time step continuity errors : sum local = 3.0305396e-14, global = -9.3108311e-17, cumulative = -2.1114744e-15
PIMPLE: iteration 2
DILUPBiCGStab:  Solving for Ux, Initial residual = 0.1543737, Final residual = 1.8570681e-10, No Iterations 1
DILUPBiCGStab:  Solving for Uy, Initial residual = 0.048494819, Final residual = 6.5456413e-11, No Iterations 1
DILUPBiCGStab:  Solving for Uz, Initial residual = 0.1543737, Final residual = 1.8570681e-10, No Iterations 1
DILUPBiCGStab:  Solving for h, Initial residual = 0.00011220369, Final residual = 3.7283956e-09, No Iterations 1
DICPCG:  Solving for p_rgh, Initial residual = 0.46704172, Final residual = 8.8785531e-08, No Iterations 223
diagonal:  Solving for rho, Initial residual = 0, Final residual = 0, No Iterations 0
time step continuity errors : sum local = 2.9585637e-14, global = -9.3035091e-17, cumulative = -2.2045095e-15
ExecutionTime = 131.82 s  ClockTime = 165 s

Courant Number mean: 1.1838186e-07 max: 0.00025210362
deltaT = 4.9792902e-08
Time = 9.1698205396e-07

PIMPLE: iteration 1
diagonal:  Solving for rho, Initial residual = 0, Final residual = 0, No Iterations 0
DILUPBiCGStab:  Solving for Ux, Initial residual = 0.015442942, Final residual = 9.7531866e-07, No Iterations 1
DILUPBiCGStab:  Solving for Uy, Initial residual = 0.0050746845, Final residual = 2.9088947e-07, No Iterations 1
DILUPBiCGStab:  Solving for Uz, Initial residual = 0.015442942, Final residual = 9.7531866e-07, No Iterations 1
DILUPBiCGStab:  Solving for h, Initial residual = 0.019499367, Final residual = 0.00011060189, No Iterations 1
DICPCG:  Solving for p_rgh, Initial residual = 0.13259397, Final residual = 8.7515897e-08, No Iterations 218
diagonal:  Solving for rho, Initial residual = 0, Final residual = 0, No Iterations 0
time step continuity errors : sum local = 2.6710878e-14, global = -9.303417e-17, cumulative = -2.2975436e-15
PIMPLE: iteration 2
DILUPBiCGStab:  Solving for Ux, Initial residual = 0.09144079, Final residual = 2.3398194e-10, No Iterations 1
DILUPBiCGStab:  Solving for Uy, Initial residual = 0.028929915, Final residual = 6.0881957e-11, No Iterations 1
DILUPBiCGStab:  Solving for Uz, Initial residual = 0.09144079, Final residual = 2.3398194e-10, No Iterations 1
DILUPBiCGStab:  Solving for h, Initial residual = 0.0001064892, Final residual = 3.5630495e-09, No Iterations 1
DICPCG:  Solving for p_rgh, Initial residual = 0.5697258, Final residual = 8.3375248e-08, No Iterations 223
diagonal:  Solving for rho, Initial residual = 0, Final residual = 0, No Iterations 0
time step continuity errors : sum local = 3.548937e-14, global = -9.2985817e-17, cumulative = -2.3905295e-15
ExecutionTime = 138.44 s  ClockTime = 172 s

Courant Number mean: 1.3775952e-07 max: 0.00024174019
deltaT = 4.9792902e-08
Time = 9.6677495574e-07

PIMPLE: iteration 1
diagonal:  Solving for rho, Initial residual = 0, Final residual = 0, No Iterations 0
DILUPBiCGStab:  Solving for Ux, Initial residual = 0.014404955, Final residual = 9.8289627e-07, No Iterations 1
DILUPBiCGStab:  Solving for Uy, Initial residual = 0.0048593705, Final residual = 3.0806087e-07, No Iterations 1
DILUPBiCGStab:  Solving for Uz, Initial residual = 0.014404955, Final residual = 9.8289627e-07, No Iterations 1
DILUPBiCGStab:  Solving for h, Initial residual = 0.017792484, Final residual = 9.9798887e-05, No Iterations 1
DICPCG:  Solving for p_rgh, Initial residual = 0.13192848, Final residual = 9.3026871e-08, No Iterations 211
diagonal:  Solving for rho, Initial residual = 0, Final residual = 0, No Iterations 0
time step continuity errors : sum local = 3.1284172e-14, global = -9.2936543e-17, cumulative = -2.483466e-15
PIMPLE: iteration 2
DILUPBiCGStab:  Solving for Ux, Initial residual = 0.11202833, Final residual = 1.7246308e-10, No Iterations 1
DILUPBiCGStab:  Solving for Uy, Initial residual = 0.072250808, Final residual = 5.6247427e-11, No Iterations 1
DILUPBiCGStab:  Solving for Uz, Initial residual = 0.11202833, Final residual = 1.7246308e-10, No Iterations 1
DILUPBiCGStab:  Solving for h, Initial residual = 9.6770977e-05, Final residual = 3.1453062e-09, No Iterations 1
DICPCG:  Solving for p_rgh, Initial residual = 0.41539236, Final residual = 8.8532385e-08, No Iterations 223
diagonal:  Solving for rho, Initial residual = 0, Final residual = 0, No Iterations 0
time step continuity errors : sum local = 3.8686786e-14, global = -9.2968088e-17, cumulative = -2.5764341e-15
ExecutionTime = 145.33 s  ClockTime = 178 s

Courant Number mean: 1.5843187e-07 max: 0.00028159903
deltaT = 4.9792902e-08
Time = 1.0165678575e-06

PIMPLE: iteration 1
diagonal:  Solving for rho, Initial residual = 0, Final residual = 0, No Iterations 0
DILUPBiCGStab:  Solving for Ux, Initial residual = 0.011521989, Final residual = 6.9319899e-07, No Iterations 1
DILUPBiCGStab:  Solving for Uy, Initial residual = 0.0063739098, Final residual = 3.8477276e-07, No Iterations 1
DILUPBiCGStab:  Solving for Uz, Initial residual = 0.01152199, Final residual = 6.9319899e-07, No Iterations 1
DILUPBiCGStab:  Solving for h, Initial residual = 0.016850088, Final residual = 9.4357703e-05, No Iterations 1
DICPCG:  Solving for p_rgh, Initial residual = 0.092894209, Final residual = 8.5900752e-08, No Iterations 212
diagonal:  Solving for rho, Initial residual = 0, Final residual = 0, No Iterations 0
time step continuity errors : sum local = 3.6725102e-14, global = -9.3169328e-17, cumulative = -2.6696034e-15
PIMPLE: iteration 2
DILUPBiCGStab:  Solving for Ux, Initial residual = 0.14144671, Final residual = 1.4906907e-10, No Iterations 1
DILUPBiCGStab:  Solving for Uy, Initial residual = 0.047430406, Final residual = 6.7421215e-11, No Iterations 1
DILUPBiCGStab:  Solving for Uz, Initial residual = 0.14144671, Final residual = 1.4906907e-10, No Iterations 1
DILUPBiCGStab:  Solving for h, Initial residual = 9.102277e-05, Final residual = 3.04142e-09, No Iterations 1
DICPCG:  Solving for p_rgh, Initial residual = 0.41003295, Final residual = 9.7564369e-08, No Iterations 220
diagonal:  Solving for rho, Initial residual = 0, Final residual = 0, No Iterations 0
time step continuity errors : sum local = 4.5962542e-14, global = -9.3154131e-17, cumulative = -2.7627575e-15
ExecutionTime = 152.18 s  ClockTime = 185 s

Courant Number mean: 1.7062978e-07 max: 0.00039304812
deltaT = 4.9792902e-08
Time = 1.0663607593e-06

PIMPLE: iteration 1
diagonal:  Solving for rho, Initial residual = 0, Final residual = 0, No Iterations 0
DILUPBiCGStab:  Solving for Ux, Initial residual = 0.009187058, Final residual = 5.3220406e-07, No Iterations 1
DILUPBiCGStab:  Solving for Uy, Initial residual = 0.0050600475, Final residual = 3.2156216e-07, No Iterations 1
DILUPBiCGStab:  Solving for Uz, Initial residual = 0.009187058, Final residual = 5.3220406e-07, No Iterations 1
DILUPBiCGStab:  Solving for h, Initial residual = 0.015880531, Final residual = 8.8758747e-05, No Iterations 1
DICPCG:  Solving for p_rgh, Initial residual = 0.088182806, Final residual = 9.7799964e-08, No Iterations 211
diagonal:  Solving for rho, Initial residual = 0, Final residual = 0, No Iterations 0
time step continuity errors : sum local = 3.9873993e-14, global = -9.3133639e-17, cumulative = -2.8558912e-15
PIMPLE: iteration 2
DILUPBiCGStab:  Solving for Ux, Initial residual = 0.072484184, Final residual = 1.5860743e-10, No Iterations 1
DILUPBiCGStab:  Solving for Uy, Initial residual = 0.046565756, Final residual = 5.2346442e-11, No Iterations 1
DILUPBiCGStab:  Solving for Uz, Initial residual = 0.072484184, Final residual = 1.5860743e-10, No Iterations 1
DILUPBiCGStab:  Solving for h, Initial residual = 8.5781577e-05, Final residual = 2.8651381e-09, No Iterations 1
DICPCG:  Solving for p_rgh, Initial residual = 0.45288272, Final residual = 9.2226449e-08, No Iterations 226
diagonal:  Solving for rho, Initial residual = 0, Final residual = 0, No Iterations 0
time step continuity errors : sum local = 4.8057616e-14, global = -9.2836844e-17, cumulative = -2.948728e-15
ExecutionTime = 159.05 s  ClockTime = 192 s

Courant Number mean: 2.0034941e-07 max: 0.00039928341
deltaT = 4.9792902e-08
Time = 1.1161536611e-06

PIMPLE: iteration 1
diagonal:  Solving for rho, Initial residual = 0, Final residual = 0, No Iterations 0
DILUPBiCGStab:  Solving for Ux, Initial residual = 0.0092354711, Final residual = 5.2681883e-07, No Iterations 1
DILUPBiCGStab:  Solving for Uy, Initial residual = 0.0054481977, Final residual = 2.7056783e-07, No Iterations 1
DILUPBiCGStab:  Solving for Uz, Initial residual = 0.0092354711, Final residual = 5.2681883e-07, No Iterations 1
DILUPBiCGStab:  Solving for h, Initial residual = 0.0152529, Final residual = 8.4509762e-05, No Iterations 1
DICPCG:  Solving for p_rgh, Initial residual = 0.086548593, Final residual = 9.6211019e-08, No Iterations 213
diagonal:  Solving for rho, Initial residual = 0, Final residual = 0, No Iterations 0
time step continuity errors : sum local = 4.8491299e-14, global = -9.3056735e-17, cumulative = -3.0417848e-15
PIMPLE: iteration 2
DILUPBiCGStab:  Solving for Ux, Initial residual = 0.10798523, Final residual = 1.0925686e-10, No Iterations 1
DILUPBiCGStab:  Solving for Uy, Initial residual = 0.06044429, Final residual = 4.8054009e-11, No Iterations 1
DILUPBiCGStab:  Solving for Uz, Initial residual = 0.10798523, Final residual = 1.0925686e-10, No Iterations 1
DILUPBiCGStab:  Solving for h, Initial residual = 8.2209015e-05, Final residual = 2.7264813e-09, No Iterations 1
DICPCG:  Solving for p_rgh, Initial residual = 0.35358551, Final residual = 8.3444095e-08, No Iterations 217
diagonal:  Solving for rho, Initial residual = 0, Final residual = 0, No Iterations 0
time step continuity errors : sum local = 4.2220607e-14, global = -9.3018974e-17, cumulative = -3.1348037e-15
ExecutionTime = 165.84 s  ClockTime = 199 s

Courant Number mean: 2.1095082e-07 max: 0.00038500402
deltaT = 4.9792902e-08
Time = 1.1659465629e-06

PIMPLE: iteration 1
diagonal:  Solving for rho, Initial residual = 0, Final residual = 0, No Iterations 0
DILUPBiCGStab:  Solving for Ux, Initial residual = 0.0088810841, Final residual = 4.8410194e-07, No Iterations 1
DILUPBiCGStab:  Solving for Uy, Initial residual = 0.0046001223, Final residual = 2.7686618e-07, No Iterations 1
DILUPBiCGStab:  Solving for Uz, Initial residual = 0.0088810841, Final residual = 4.8410194e-07, No Iterations 1
DILUPBiCGStab:  Solving for h, Initial residual = 0.015316181, Final residual = 8.5460887e-05, No Iterations 1
DICPCG:  Solving for p_rgh, Initial residual = 0.10284676, Final residual = 8.3263731e-08, No Iterations 216
diagonal:  Solving for rho, Initial residual = 0, Final residual = 0, No Iterations 0
time step continuity errors : sum local = 4.0685921e-14, global = -8.3539736e-17, cumulative = -3.2183435e-15
PIMPLE: iteration 2
DILUPBiCGStab:  Solving for Ux, Initial residual = 0.071513663, Final residual = 1.5107289e-10, No Iterations 1
DILUPBiCGStab:  Solving for Uy, Initial residual = 0.029626315, Final residual = 4.5133013e-11, No Iterations 1
DILUPBiCGStab:  Solving for Uz, Initial residual = 0.071513662, Final residual = 1.5107289e-10, No Iterations 1
DILUPBiCGStab:  Solving for h, Initial residual = 8.252832e-05, Final residual = 2.7549091e-09, No Iterations 1
DICPCG:  Solving for p_rgh, Initial residual = 0.4757635, Final residual = 9.8980223e-08, No Iterations 223
diagonal:  Solving for rho, Initial residual = 0, Final residual = 0, No Iterations 0
time step continuity errors : sum local = 6.0427436e-14, global = -8.3316622e-17, cumulative = -3.3016601e-15
ExecutionTime = 172.7 s  ClockTime = 206 s

Courant Number mean: 2.2715026e-07 max: 0.00033938142
deltaT = 4.9792902e-08
Time = 1.2157394646e-06

PIMPLE: iteration 1
diagonal:  Solving for rho, Initial residual = 0, Final residual = 0, No Iterations 0
DILUPBiCGStab:  Solving for Ux, Initial residual = 0.0088571915, Final residual = 5.8403698e-07, No Iterations 1
DILUPBiCGStab:  Solving for Uy, Initial residual = 0.0039724853, Final residual = 2.2823146e-07, No Iterations 1
DILUPBiCGStab:  Solving for Uz, Initial residual = 0.0088571915, Final residual = 5.8403698e-07, No Iterations 1
DILUPBiCGStab:  Solving for h, Initial residual = 0.014391184, Final residual = 8.0047052e-05, No Iterations 1
DICPCG:  Solving for p_rgh, Initial residual = 0.099678794, Final residual = 8.8373134e-08, No Iterations 214
diagonal:  Solving for rho, Initial residual = 0, Final residual = 0, No Iterations 0
time step continuity errors : sum local = 4.6407144e-14, global = -8.3457076e-17, cumulative = -3.3851172e-15
PIMPLE: iteration 2
DILUPBiCGStab:  Solving for Ux, Initial residual = 0.097967352, Final residual = 1.0983492e-10, No Iterations 1
DILUPBiCGStab:  Solving for Uy, Initial residual = 0.060710224, Final residual = 3.7121769e-11, No Iterations 1
DILUPBiCGStab:  Solving for Uz, Initial residual = 0.097967352, Final residual = 1.0983492e-10, No Iterations 1
DILUPBiCGStab:  Solving for h, Initial residual = 7.8113532e-05, Final residual = 2.5105768e-09, No Iterations 1
DICPCG:  Solving for p_rgh, Initial residual = 0.33101093, Final residual = 8.9876802e-08, No Iterations 220
diagonal:  Solving for rho, Initial residual = 0, Final residual = 0, No Iterations 0
time step continuity errors : sum local = 5.2647212e-14, global = -8.3531447e-17, cumulative = -3.4686486e-15
ExecutionTime = 179.42 s  ClockTime = 213 s

Courant Number mean: 2.3679804e-07 max: 0.00031325866
deltaT = 4.9792902e-08
Time = 1.2655323664e-06

PIMPLE: iteration 1
diagonal:  Solving for rho, Initial residual = 0, Final residual = 0, No Iterations 0
DILUPBiCGStab:  Solving for Ux, Initial residual = 0.0068014062, Final residual = 3.5516122e-07, No Iterations 1
DILUPBiCGStab:  Solving for Uy, Initial residual = 0.0043899064, Final residual = 2.5981483e-07, No Iterations 1
DILUPBiCGStab:  Solving for Uz, Initial residual = 0.0068014062, Final residual = 3.5516122e-07, No Iterations 1
DILUPBiCGStab:  Solving for h, Initial residual = 0.013909476, Final residual = 8.2560394e-05, No Iterations 1
DICPCG:  Solving for p_rgh, Initial residual = 0.081454446, Final residual = 9.4056838e-08, No Iterations 210
diagonal:  Solving for rho, Initial residual = 0, Final residual = 0, No Iterations 0
time step continuity errors : sum local = 5.3418236e-14, global = -9.3191893e-17, cumulative = -3.5618405e-15
PIMPLE: iteration 2
DILUPBiCGStab:  Solving for Ux, Initial residual = 0.069886895, Final residual = 9.5121574e-11, No Iterations 1
DILUPBiCGStab:  Solving for Uy, Initial residual = 0.030342676, Final residual = 3.7614778e-11, No Iterations 1
DILUPBiCGStab:  Solving for Uz, Initial residual = 0.069886895, Final residual = 9.5121574e-11, No Iterations 1
[...]
DILUPBiCGStab:  Solving for h, Initial residual = 4.5860021e-05, Final residual = 1.7015416e-09, No Iterations 1
DICPCG:  Solving for p_rgh, Initial residual = 0.69438759, Final residual = 8.9756769e-08, No Iterations 230
diagonal:  Solving for rho, Initial residual = 0, Final residual = 0, No Iterations 0
time step continuity errors : sum local = 2.6142527e-13, global = 5.4460773e-17, cumulative = -3.399982e-15
ExecutionTime = 14312.74 s  ClockTime = 14347 s

Courant Number mean: 0.00018000954 max: 0.030067614
deltaT = 5e-08
Time = 9.9500000000e-05

PIMPLE: iteration 1
diagonal:  Solving for rho, Initial residual = 0, Final residual = 0, No Iterations 0
DILUPBiCGStab:  Solving for Ux, Initial residual = 0.0057442079, Final residual = 1.1053202e-06, No Iterations 1
DILUPBiCGStab:  Solving for Uy, Initial residual = 0.0033542027, Final residual = 7.6453979e-07, No Iterations 1
DILUPBiCGStab:  Solving for Uz, Initial residual = 0.0057442079, Final residual = 1.1053202e-06, No Iterations 1
DILUPBiCGStab:  Solving for h, Initial residual = 0.0087334959, Final residual = 4.6069003e-05, No Iterations 1
DICPCG:  Solving for p_rgh, Initial residual = 0.20510714, Final residual = 8.4215702e-08, No Iterations 232
diagonal:  Solving for rho, Initial residual = 0, Final residual = 0, No Iterations 0
time step continuity errors : sum local = 1.657549e-13, global = -1.5732416e-17, cumulative = -3.4157144e-15
PIMPLE: iteration 2
DILUPBiCGStab:  Solving for Ux, Initial residual = 0.13163309, Final residual = 1.8389942e-10, No Iterations 1
DILUPBiCGStab:  Solving for Uy, Initial residual = 0.075244896, Final residual = 1.1002775e-10, No Iterations 1
DILUPBiCGStab:  Solving for Uz, Initial residual = 0.13163309, Final residual = 1.8389942e-10, No Iterations 1
DILUPBiCGStab:  Solving for h, Initial residual = 4.6202641e-05, Final residual = 1.7119136e-09, No Iterations 1
DICPCG:  Solving for p_rgh, Initial residual = 0.64101259, Final residual = 9.9831129e-08, No Iterations 224
diagonal:  Solving for rho, Initial residual = 0, Final residual = 0, No Iterations 0
time step continuity errors : sum local = 2.6175904e-13, global = -1.5685675e-17, cumulative = -3.4314001e-15
ExecutionTime = 14322.78 s  ClockTime = 14357 s

Courant Number mean: 0.00017945739 max: 0.030026666
deltaT = 5e-08
Time = 9.9550000000e-05

PIMPLE: iteration 1
diagonal:  Solving for rho, Initial residual = 0, Final residual = 0, No Iterations 0
DILUPBiCGStab:  Solving for Ux, Initial residual = 0.0054846891, Final residual = 9.9639671e-07, No Iterations 1
DILUPBiCGStab:  Solving for Uy, Initial residual = 0.0028035745, Final residual = 6.1028773e-07, No Iterations 1
DILUPBiCGStab:  Solving for Uz, Initial residual = 0.0054846891, Final residual = 9.9639671e-07, No Iterations 1
DILUPBiCGStab:  Solving for h, Initial residual = 0.0087583363, Final residual = 4.615037e-05, No Iterations 1
DICPCG:  Solving for p_rgh, Initial residual = 0.16713176, Final residual = 9.6896263e-08, No Iterations 229
diagonal:  Solving for rho, Initial residual = 0, Final residual = 0, No Iterations 0
time step continuity errors : sum local = 1.5074e-13, global = 5.4699084e-17, cumulative = -3.376701e-15
PIMPLE: iteration 2
DILUPBiCGStab:  Solving for Ux, Initial residual = 0.084994069, Final residual = 2.2552064e-10, No Iterations 1
DILUPBiCGStab:  Solving for Uy, Initial residual = 0.072525882, Final residual = 1.5040448e-10, No Iterations 1
DILUPBiCGStab:  Solving for Uz, Initial residual = 0.084994069, Final residual = 2.2552064e-10, No Iterations 1
DILUPBiCGStab:  Solving for h, Initial residual = 4.6048114e-05, Final residual = 1.7068796e-09, No Iterations 1
DICPCG:  Solving for p_rgh, Initial residual = 0.7084598, Final residual = 8.9829923e-08, No Iterations 234
diagonal:  Solving for rho, Initial residual = 0, Final residual = 0, No Iterations 0
time step continuity errors : sum local = 2.6237313e-13, global = 5.4575208e-17, cumulative = -3.3221258e-15
ExecutionTime = 14333.07 s  ClockTime = 14368 s

Courant Number mean: 0.00017912917 max: 0.029990169
deltaT = 5e-08
Time = 9.9600000000e-05

PIMPLE: iteration 1
diagonal:  Solving for rho, Initial residual = 0, Final residual = 0, No Iterations 0
DILUPBiCGStab:  Solving for Ux, Initial residual = 0.0076905689, Final residual = 1.6595218e-06, No Iterations 1
DILUPBiCGStab:  Solving for Uy, Initial residual = 0.0044630528, Final residual = 1.0716422e-06, No Iterations 1
DILUPBiCGStab:  Solving for Uz, Initial residual = 0.0076905689, Final residual = 1.6595218e-06, No Iterations 1
DILUPBiCGStab:  Solving for h, Initial residual = 0.0087741219, Final residual = 4.6235505e-05, No Iterations 1
DICPCG:  Solving for p_rgh, Initial residual = 0.23231433, Final residual = 9.4661932e-08, No Iterations 234
diagonal:  Solving for rho, Initial residual = 0, Final residual = 0, No Iterations 0
time step continuity errors : sum local = 1.9952614e-13, global = 3.2743191e-17, cumulative = -3.2893826e-15
PIMPLE: iteration 2
DILUPBiCGStab:  Solving for Ux, Initial residual = 0.12938646, Final residual = 2.2918795e-10, No Iterations 1
DILUPBiCGStab:  Solving for Uy, Initial residual = 0.074446938, Final residual = 1.2744726e-10, No Iterations 1
DILUPBiCGStab:  Solving for Uz, Initial residual = 0.12938646, Final residual = 2.2918795e-10, No Iterations 1
DILUPBiCGStab:  Solving for h, Initial residual = 4.639279e-05, Final residual = 1.7162775e-09, No Iterations 1
DICPCG:  Solving for p_rgh, Initial residual = 0.66538309, Final residual = 9.0599341e-08, No Iterations 224
diagonal:  Solving for rho, Initial residual = 0, Final residual = 0, No Iterations 0
time step continuity errors : sum local = 2.8813945e-13, global = 3.2951569e-17, cumulative = -3.256431e-15
ExecutionTime = 14343.41 s  ClockTime = 14378 s

Courant Number mean: 0.00017856635 max: 0.029948901
deltaT = 5e-08
Time = 9.9650000000e-05

PIMPLE: iteration 1
diagonal:  Solving for rho, Initial residual = 0, Final residual = 0, No Iterations 0
DILUPBiCGStab:  Solving for Ux, Initial residual = 0.0061299328, Final residual = 1.2034862e-06, No Iterations 1
DILUPBiCGStab:  Solving for Uy, Initial residual = 0.0029957906, Final residual = 6.2941412e-07, No Iterations 1
DILUPBiCGStab:  Solving for Uz, Initial residual = 0.0061299328, Final residual = 1.2034862e-06, No Iterations 1
DILUPBiCGStab:  Solving for h, Initial residual = 0.008808888, Final residual = 4.636839e-05, No Iterations 1
DICPCG:  Solving for p_rgh, Initial residual = 0.19089187, Final residual = 9.9753337e-08, No Iterations 228
diagonal:  Solving for rho, Initial residual = 0, Final residual = 0, No Iterations 0
time step continuity errors : sum local = 1.651103e-13, global = 5.4646816e-17, cumulative = -3.2017842e-15
PIMPLE: iteration 2
DILUPBiCGStab:  Solving for Ux, Initial residual = 0.073635499, Final residual = 2.2739964e-10, No Iterations 1
DILUPBiCGStab:  Solving for Uy, Initial residual = 0.056879988, Final residual = 1.3808183e-10, No Iterations 1
DILUPBiCGStab:  Solving for Uz, Initial residual = 0.073635499, Final residual = 2.2739964e-10, No Iterations 1
DILUPBiCGStab:  Solving for h, Initial residual = 4.6271833e-05, Final residual = 1.7122828e-09, No Iterations 1
DICPCG:  Solving for p_rgh, Initial residual = 0.69509895, Final residual = 9.4251253e-08, No Iterations 231
diagonal:  Solving for rho, Initial residual = 0, Final residual = 0, No Iterations 0
time step continuity errors : sum local = 2.7037575e-13, global = 5.4669611e-17, cumulative = -3.1471146e-15
ExecutionTime = 14353.14 s  ClockTime = 14388 s

Courant Number mean: 0.00017827446 max: 0.029913255
deltaT = 5e-08
Time = 9.9700000000e-05

PIMPLE: iteration 1
diagonal:  Solving for rho, Initial residual = 0, Final residual = 0, No Iterations 0
DILUPBiCGStab:  Solving for Ux, Initial residual = 0.0062571085, Final residual = 1.3048539e-06, No Iterations 1
DILUPBiCGStab:  Solving for Uy, Initial residual = 0.0035835353, Final residual = 8.45477e-07, No Iterations 1
DILUPBiCGStab:  Solving for Uz, Initial residual = 0.0062571085, Final residual = 1.3048539e-06, No Iterations 1
DILUPBiCGStab:  Solving for h, Initial residual = 0.0088041752, Final residual = 4.6330685e-05, No Iterations 1
DICPCG:  Solving for p_rgh, Initial residual = 0.19968732, Final residual = 9.0653199e-08, No Iterations 231
diagonal:  Solving for rho, Initial residual = 0, Final residual = 0, No Iterations 0
time step continuity errors : sum local = 1.8019799e-13, global = -7.9307477e-17, cumulative = -3.2264221e-15
PIMPLE: iteration 2
DILUPBiCGStab:  Solving for Ux, Initial residual = 0.12654558, Final residual = 2.1564555e-10, No Iterations 1
DILUPBiCGStab:  Solving for Uy, Initial residual = 0.075853314, Final residual = 1.2870468e-10, No Iterations 1
DILUPBiCGStab:  Solving for Uz, Initial residual = 0.12654558, Final residual = 2.1564555e-10, No Iterations 1
DILUPBiCGStab:  Solving for h, Initial residual = 4.6466871e-05, Final residual = 1.7155838e-09, No Iterations 1
DICPCG:  Solving for p_rgh, Initial residual = 0.66829907, Final residual = 9.3429703e-08, No Iterations 227
diagonal:  Solving for rho, Initial residual = 0, Final residual = 0, No Iterations 0
time step continuity errors : sum local = 2.8467521e-13, global = -7.9093574e-17, cumulative = -3.3055157e-15
ExecutionTime = 14362.92 s  ClockTime = 14398 s

Courant Number mean: 0.00017771465 max: 0.029871188
deltaT = 5e-08
Time = 9.9750000000e-05

PIMPLE: iteration 1
diagonal:  Solving for rho, Initial residual = 0, Final residual = 0, No Iterations 0
DILUPBiCGStab:  Solving for Ux, Initial residual = 0.0063930692, Final residual = 1.3513743e-06, No Iterations 1
DILUPBiCGStab:  Solving for Uy, Initial residual = 0.0033552034, Final residual = 7.0793976e-07, No Iterations 1
DILUPBiCGStab:  Solving for Uz, Initial residual = 0.0063930692, Final residual = 1.3513743e-06, No Iterations 1
DILUPBiCGStab:  Solving for h, Initial residual = 0.0088353203, Final residual = 4.6433203e-05, No Iterations 1
DICPCG:  Solving for p_rgh, Initial residual = 0.19832824, Final residual = 9.520979e-08, No Iterations 230
diagonal:  Solving for rho, Initial residual = 0, Final residual = 0, No Iterations 0
time step continuity errors : sum local = 1.5909643e-13, global = 5.4526395e-17, cumulative = -3.2509893e-15
PIMPLE: iteration 2
DILUPBiCGStab:  Solving for Ux, Initial residual = 0.081028989, Final residual = 2.3187149e-10, No Iterations 1
DILUPBiCGStab:  Solving for Uy, Initial residual = 0.06579909, Final residual = 1.5246582e-10, No Iterations 1
DILUPBiCGStab:  Solving for Uz, Initial residual = 0.081028989, Final residual = 2.3187149e-10, No Iterations 1
DILUPBiCGStab:  Solving for h, Initial residual = 4.633786e-05, Final residual = 1.7119437e-09, No Iterations 1
DICPCG:  Solving for p_rgh, Initial residual = 0.69418911, Final residual = 9.6843847e-08, No Iterations 229
diagonal:  Solving for rho, Initial residual = 0, Final residual = 0, No Iterations 0
time step continuity errors : sum local = 2.8131661e-13, global = 5.462218e-17, cumulative = -3.1963671e-15
ExecutionTime = 14372.93 s  ClockTime = 14408 s

Courant Number mean: 0.00017742953 max: 0.029835277
deltaT = 5e-08
Time = 9.9800000000e-05

PIMPLE: iteration 1
diagonal:  Solving for rho, Initial residual = 0, Final residual = 0, No Iterations 0
DILUPBiCGStab:  Solving for Ux, Initial residual = 0.0066697709, Final residual = 1.3188528e-06, No Iterations 1
DILUPBiCGStab:  Solving for Uy, Initial residual = 0.0036890031, Final residual = 8.3750953e-07, No Iterations 1
DILUPBiCGStab:  Solving for Uz, Initial residual = 0.0066697709, Final residual = 1.3188528e-06, No Iterations 1
DILUPBiCGStab:  Solving for h, Initial residual = 0.0088444549, Final residual = 4.6429374e-05, No Iterations 1
DICPCG:  Solving for p_rgh, Initial residual = 0.22459622, Final residual = 9.830115e-08, No Iterations 230
diagonal:  Solving for rho, Initial residual = 0, Final residual = 0, No Iterations 0
time step continuity errors : sum local = 1.9876935e-13, global = 9.4475547e-17, cumulative = -3.1018915e-15
PIMPLE: iteration 2
DILUPBiCGStab:  Solving for Ux, Initial residual = 0.13544896, Final residual = 1.9830575e-10, No Iterations 1
DILUPBiCGStab:  Solving for Uy, Initial residual = 0.082599487, Final residual = 1.2495723e-10, No Iterations 1
DILUPBiCGStab:  Solving for Uz, Initial residual = 0.13544896, Final residual = 1.9830575e-10, No Iterations 1
DILUPBiCGStab:  Solving for h, Initial residual = 4.6560019e-05, Final residual = 1.7178662e-09, No Iterations 1
DICPCG:  Solving for p_rgh, Initial residual = 0.65524438, Final residual = 9.2638325e-08, No Iterations 228
diagonal:  Solving for rho, Initial residual = 0, Final residual = 0, No Iterations 0
time step continuity errors : sum local = 2.6219787e-13, global = 9.4558898e-17, cumulative = -3.0073326e-15
ExecutionTime = 14382.6 s  ClockTime = 14417 s

Courant Number mean: 0.00017684608 max: 0.029791714
deltaT = 5e-08
Time = 9.9850000000e-05

PIMPLE: iteration 1
diagonal:  Solving for rho, Initial residual = 0, Final residual = 0, No Iterations 0
DILUPBiCGStab:  Solving for Ux, Initial residual = 0.0066203244, Final residual = 1.3335236e-06, No Iterations 1
DILUPBiCGStab:  Solving for Uy, Initial residual = 0.0033593271, Final residual = 6.9615334e-07, No Iterations 1
DILUPBiCGStab:  Solving for Uz, Initial residual = 0.0066203244, Final residual = 1.3335236e-06, No Iterations 1
DILUPBiCGStab:  Solving for h, Initial residual = 0.0088715532, Final residual = 4.6537604e-05, No Iterations 1
DICPCG:  Solving for p_rgh, Initial residual = 0.20805229, Final residual = 8.6423793e-08, No Iterations 232
diagonal:  Solving for rho, Initial residual = 0, Final residual = 0, No Iterations 0
time step continuity errors : sum local = 1.4633757e-13, global = 5.4843682e-17, cumulative = -2.952489e-15
PIMPLE: iteration 2
DILUPBiCGStab:  Solving for Ux, Initial residual = 0.070660229, Final residual = 2.3824178e-10, No Iterations 1
DILUPBiCGStab:  Solving for Uy, Initial residual = 0.056359312, Final residual = 1.3424676e-10, No Iterations 1
DILUPBiCGStab:  Solving for Uz, Initial residual = 0.070660229, Final residual = 2.3824178e-10, No Iterations 1
DILUPBiCGStab:  Solving for h, Initial residual = 4.6450274e-05, Final residual = 1.7136286e-09, No Iterations 1
DICPCG:  Solving for p_rgh, Initial residual = 0.67557965, Final residual = 8.1613974e-08, No Iterations 229
diagonal:  Solving for rho, Initial residual = 0, Final residual = 0, No Iterations 0
time step continuity errors : sum local = 2.3929396e-13, global = 5.4699774e-17, cumulative = -2.8977892e-15
ExecutionTime = 14392.5 s  ClockTime = 14427 s

Courant Number mean: 0.00017653783 max: 0.029756781
deltaT = 5e-08
Time = 9.9900000000e-05

PIMPLE: iteration 1
diagonal:  Solving for rho, Initial residual = 0, Final residual = 0, No Iterations 0
DILUPBiCGStab:  Solving for Ux, Initial residual = 0.0063171094, Final residual = 1.1576732e-06, No Iterations 1
DILUPBiCGStab:  Solving for Uy, Initial residual = 0.0033808964, Final residual = 7.8896754e-07, No Iterations 1
DILUPBiCGStab:  Solving for Uz, Initial residual = 0.0063171094, Final residual = 1.1576732e-06, No Iterations 1
DILUPBiCGStab:  Solving for h, Initial residual = 0.008863215, Final residual = 4.6427262e-05, No Iterations 1
DICPCG:  Solving for p_rgh, Initial residual = 0.19264429, Final residual = 9.5434664e-08, No Iterations 228
diagonal:  Solving for rho, Initial residual = 0, Final residual = 0, No Iterations 0
time step continuity errors : sum local = 1.9168083e-13, global = -6.6836578e-17, cumulative = -2.9646258e-15
PIMPLE: iteration 2
DILUPBiCGStab:  Solving for Ux, Initial residual = 0.13276186, Final residual = 2.2343494e-10, No Iterations 1
DILUPBiCGStab:  Solving for Uy, Initial residual = 0.072282789, Final residual = 1.1039237e-10, No Iterations 1
DILUPBiCGStab:  Solving for Uz, Initial residual = 0.13276186, Final residual = 2.2343494e-10, No Iterations 1
DILUPBiCGStab:  Solving for h, Initial residual = 4.6558003e-05, Final residual = 1.716303e-09, No Iterations 1
DICPCG:  Solving for p_rgh, Initial residual = 0.65987971, Final residual = 9.8074645e-08, No Iterations 224
diagonal:  Solving for rho, Initial residual = 0, Final residual = 0, No Iterations 0
time step continuity errors : sum local = 2.6610652e-13, global = -6.676543e-17, cumulative = -3.0313912e-15
ExecutionTime = 14401.97 s  ClockTime = 14437 s

Courant Number mean: 0.0001760166 max: 0.029715758
deltaT = 5e-08
Time = 9.9950000000e-05

PIMPLE: iteration 1
diagonal:  Solving for rho, Initial residual = 0, Final residual = 0, No Iterations 0
DILUPBiCGStab:  Solving for Ux, Initial residual = 0.0056771195, Final residual = 1.0697203e-06, No Iterations 1
DILUPBiCGStab:  Solving for Uy, Initial residual = 0.0027566476, Final residual = 5.9826488e-07, No Iterations 1
DILUPBiCGStab:  Solving for Uz, Initial residual = 0.0056771195, Final residual = 1.0697203e-06, No Iterations 1
DILUPBiCGStab:  Solving for h, Initial residual = 0.0088684089, Final residual = 4.6456988e-05, No Iterations 1
DICPCG:  Solving for p_rgh, Initial residual = 0.17419465, Final residual = 9.6537976e-08, No Iterations 229
diagonal:  Solving for rho, Initial residual = 0, Final residual = 0, No Iterations 0
time step continuity errors : sum local = 1.505444e-13, global = 5.487845e-17, cumulative = -2.9765128e-15
PIMPLE: iteration 2
DILUPBiCGStab:  Solving for Ux, Initial residual = 0.083271455, Final residual = 2.2468631e-10, No Iterations 1
DILUPBiCGStab:  Solving for Uy, Initial residual = 0.060232222, Final residual = 1.404981e-10, No Iterations 1
DILUPBiCGStab:  Solving for Uz, Initial residual = 0.083271455, Final residual = 2.2468631e-10, No Iterations 1
DILUPBiCGStab:  Solving for h, Initial residual = 4.6368016e-05, Final residual = 1.7107124e-09, No Iterations 1
DICPCG:  Solving for p_rgh, Initial residual = 0.68314627, Final residual = 8.7813802e-08, No Iterations 229
diagonal:  Solving for rho, Initial residual = 0, Final residual = 0, No Iterations 0
time step continuity errors : sum local = 2.4280621e-13, global = 5.4521099e-17, cumulative = -2.9219917e-15
ExecutionTime = 14411.72 s  ClockTime = 14446 s

Courant Number mean: 0.00017572395 max: 0.029675715
deltaT = 5e-08
Time = 1.0000000000e-04

PIMPLE: iteration 1
diagonal:  Solving for rho, Initial residual = 0, Final residual = 0, No Iterations 0
DILUPBiCGStab:  Solving for Ux, Initial residual = 0.0065331164, Final residual = 1.3053037e-06, No Iterations 1
DILUPBiCGStab:  Solving for Uy, Initial residual = 0.0035116182, Final residual = 8.170815e-07, No Iterations 1
DILUPBiCGStab:  Solving for Uz, Initial residual = 0.0065331164, Final residual = 1.3053037e-06, No Iterations 1
DILUPBiCGStab:  Solving for h, Initial residual = 0.0088548822, Final residual = 4.6342694e-05, No Iterations 1
DICPCG:  Solving for p_rgh, Initial residual = 0.21394418, Final residual = 9.6322064e-08, No Iterations 229
diagonal:  Solving for rho, Initial residual = 0, Final residual = 0, No Iterations 0
time step continuity errors : sum local = 1.8779907e-13, global = 4.555256e-17, cumulative = -2.8764391e-15
PIMPLE: iteration 2
DILUPBiCGStab:  Solving for Ux, Initial residual = 0.13515931, Final residual = 2.0074445e-10, No Iterations 1
DILUPBiCGStab:  Solving for Uy, Initial residual = 0.077229961, Final residual = 1.089278e-10, No Iterations 1
DILUPBiCGStab:  Solving for Uz, Initial residual = 0.13515931, Final residual = 2.0074445e-10, No Iterations 1
DILUPBiCGStab:  Solving for h, Initial residual = 4.646527e-05, Final residual = 1.713013e-09, No Iterations 1
DICPCG:  Solving for p_rgh, Initial residual = 0.65525037, Final residual = 9.1874893e-08, No Iterations 226
diagonal:  Solving for rho, Initial residual = 0, Final residual = 0, No Iterations 0
time step continuity errors : sum local = 2.4531669e-13, global = 4.5824027e-17, cumulative = -2.8306151e-15
ExecutionTime = 14423.75 s  ClockTime = 14458 s

End

